gem5 Simulator System.  http://gem5.org
gem5 is copyrighted software; use the --copyright option for details.

gem5 version 21.2.0.0
gem5 compiled Jan 10 2022 21:34:29
gem5 started Jan 17 2022 01:49:57
gem5 executing on 3e58a5b05830, pid 351360
command line: ./build/ARM/gem5.opt --debug-flags=DRAM,FmtFlag,FmtStackTrace --debug-start=1 -re configs/learning_gem5/part1/simple.py --cpu-type=AtomicSimpleCPU -c ./mibench/automotive/qsort/qsort_small -o ./mibench/automotive/qsort/input_small.dat

Global frequency set at 1000000000000 ticks per second
Beginning simulation!
  46250: DRAM: system.mem_ctrl.dram: number of read entries for rank 0 is 0
  77000: DRAM: system.mem_ctrl.dram: Address: 0x17c Rank 0 Bank 0 Row 0
  77000: DRAM: system.mem_ctrl.dram: Timing access to addr 0x17c, rank/bank/row 0 0 0
  77000: DRAM: system.mem_ctrl.dram: Schedule RD/WR burst at tick 77000
  95750: DRAM: system.mem_ctrl.dram: number of read entries for rank 0 is 0
 126000: DRAM: system.mem_ctrl.dram: Address: 0x154 Rank 0 Bank 0 Row 0
 126000: DRAM: system.mem_ctrl.dram: Timing access to addr 0x154, rank/bank/row 0 0 0
 126000: DRAM: system.mem_ctrl.dram: Schedule RD/WR burst at tick 126000
 144750: DRAM: system.mem_ctrl.dram: number of read entries for rank 0 is 0
 175000: DRAM: system.mem_ctrl.dram: Address: 0x158 Rank 0 Bank 0 Row 0
 175000: DRAM: system.mem_ctrl.dram: Timing access to addr 0x158, rank/bank/row 0 0 0
 175000: DRAM: system.mem_ctrl.dram: Schedule RD/WR burst at tick 175000
 193750: DRAM: system.mem_ctrl.dram: number of read entries for rank 0 is 0
 224000: DRAM: system.mem_ctrl.dram: Address: 0x77e70 Rank 1 Bank 3 Row 3
 224000: DRAM: system.mem_ctrl.dram: Timing access to addr 0x77e70, rank/bank/row 1 3 3
 224000: DRAM: system.mem_ctrl.dram: Activate at tick 224000
 224000: DRAM: system.mem_ctrl.dram: Activate bank 3, rank 1 at tick 224000, now got 1 active
 224000: DRAM: system.mem_ctrl.dram: Schedule RD/WR burst at tick 237750
 256500: DRAM: system.mem_ctrl.dram: number of read entries for rank 1 is 0
 287000: DRAM: system.mem_ctrl.dram: Address: 0x15c Rank 0 Bank 0 Row 0
 287000: DRAM: system.mem_ctrl.dram: Timing access to addr 0x15c, rank/bank/row 0 0 0
 287000: DRAM: system.mem_ctrl.dram: Schedule RD/WR burst at tick 287000
 305750: DRAM: system.mem_ctrl.dram: number of read entries for rank 0 is 0
 336000: DRAM: system.mem_ctrl.dram: Address: 0x160 Rank 0 Bank 0 Row 0
 336000: DRAM: system.mem_ctrl.dram: Timing access to addr 0x160, rank/bank/row 0 0 0
 336000: DRAM: system.mem_ctrl.dram: Schedule RD/WR burst at tick 336000
 354750: DRAM: system.mem_ctrl.dram: number of read entries for rank 0 is 0
 385000: DRAM: system.mem_ctrl.dram: Address: 0x77e70 Rank 1 Bank 3 Row 3
 406000: DRAM: system.mem_ctrl.dram: Address: 0x164 Rank 0 Bank 0 Row 0
 406000: DRAM: system.mem_ctrl.dram: Timing access to addr 0x164, rank/bank/row 0 0 0
 406000: DRAM: system.mem_ctrl.dram: Schedule RD/WR burst at tick 406000
 424750: DRAM: system.mem_ctrl.dram: number of read entries for rank 0 is 0
 476000: DRAM: system.mem_ctrl.dram: Address: 0x168 Rank 0 Bank 0 Row 0
 476000: DRAM: system.mem_ctrl.dram: Timing access to addr 0x168, rank/bank/row 0 0 0
 476000: DRAM: system.mem_ctrl.dram: Schedule RD/WR burst at tick 476000
 494750: DRAM: system.mem_ctrl.dram: number of read entries for rank 0 is 0
 525000: DRAM: system.mem_ctrl.dram: Address: 0x180 Rank 0 Bank 0 Row 0
 525000: DRAM: system.mem_ctrl.dram: Timing access to addr 0x180, rank/bank/row 0 0 0
 525000: DRAM: system.mem_ctrl.dram: Schedule RD/WR burst at tick 525000
 543750: DRAM: system.mem_ctrl.dram: number of read entries for rank 0 is 0
 574000: DRAM: system.mem_ctrl.dram: Address: 0x16c Rank 0 Bank 0 Row 0
 574000: DRAM: system.mem_ctrl.dram: Timing access to addr 0x16c, rank/bank/row 0 0 0
 574000: DRAM: system.mem_ctrl.dram: Schedule RD/WR burst at tick 574000
 592750: DRAM: system.mem_ctrl.dram: number of read entries for rank 0 is 0
 623000: DRAM: system.mem_ctrl.dram: Address: 0x184 Rank 0 Bank 0 Row 0
 623000: DRAM: system.mem_ctrl.dram: Timing access to addr 0x184, rank/bank/row 0 0 0
 623000: DRAM: system.mem_ctrl.dram: Schedule RD/WR burst at tick 623000
 641750: DRAM: system.mem_ctrl.dram: number of read entries for rank 0 is 0
 672000: DRAM: system.mem_ctrl.dram: Address: 0x170 Rank 0 Bank 0 Row 0
 672000: DRAM: system.mem_ctrl.dram: Timing access to addr 0x170, rank/bank/row 0 0 0
 672000: DRAM: system.mem_ctrl.dram: Schedule RD/WR burst at tick 672000
 690750: DRAM: system.mem_ctrl.dram: number of read entries for rank 0 is 0
 742000: DRAM: system.mem_ctrl.dram: Address: 0x174 Rank 0 Bank 0 Row 0
 742000: DRAM: system.mem_ctrl.dram: Timing access to addr 0x174, rank/bank/row 0 0 0
 742000: DRAM: system.mem_ctrl.dram: Schedule RD/WR burst at tick 742000
 760750: DRAM: system.mem_ctrl.dram: number of read entries for rank 0 is 0
 791000: DRAM: system.mem_ctrl.dram: Address: 0x26c Rank 0 Bank 0 Row 0
 791000: DRAM: system.mem_ctrl.dram: Timing access to addr 0x26c, rank/bank/row 0 0 0
 791000: DRAM: system.mem_ctrl.dram: Schedule RD/WR burst at tick 791000
 809750: DRAM: system.mem_ctrl.dram: number of read entries for rank 0 is 0
 840000: DRAM: system.mem_ctrl.dram: Address: 0x50c Rank 0 Bank 0 Row 0
 840000: DRAM: system.mem_ctrl.dram: Timing access to addr 0x50c, rank/bank/row 0 0 0
 840000: DRAM: system.mem_ctrl.dram: Schedule RD/WR burst at tick 840000
 858750: DRAM: system.mem_ctrl.dram: number of read entries for rank 0 is 0
 889000: DRAM: system.mem_ctrl.dram: Address: 0x270 Rank 0 Bank 0 Row 0
 889000: DRAM: system.mem_ctrl.dram: Timing access to addr 0x270, rank/bank/row 0 0 0
 889000: DRAM: system.mem_ctrl.dram: Schedule RD/WR burst at tick 889000
 889000: DRAM: system.mem_ctrl.dram: Precharging bank 0, rank 0 at tick 896500, now got 0 active
 889000: DRAM: system.mem_ctrl.dram: Auto-precharged bank: 0
 907750: DRAM: system.mem_ctrl.dram: number of read entries for rank 0 is 0
1064000: DRAM: system.mem_ctrl.dram: Address: 0x274 Rank 0 Bank 0 Row 0
1064000: DRAM: system.mem_ctrl.dram: Timing access to addr 0x274, rank/bank/row 0 0 0
1064000: DRAM: system.mem_ctrl.dram: Activate at tick 1064000
1064000: DRAM: system.mem_ctrl.dram: Activate bank 0, rank 0 at tick 1064000, now got 1 active
1064000: DRAM: system.mem_ctrl.dram: Schedule RD/WR burst at tick 1077750
1096500: DRAM: system.mem_ctrl.dram: number of read entries for rank 0 is 0
1127000: DRAM: system.mem_ctrl.dram: Address: 0x278 Rank 0 Bank 0 Row 0
1127000: DRAM: system.mem_ctrl.dram: Timing access to addr 0x278, rank/bank/row 0 0 0
1127000: DRAM: system.mem_ctrl.dram: Schedule RD/WR burst at tick 1127000
1145750: DRAM: system.mem_ctrl.dram: number of read entries for rank 0 is 0
1176000: DRAM: system.mem_ctrl.dram: Address: 0x27c Rank 0 Bank 0 Row 0
1176000: DRAM: system.mem_ctrl.dram: Timing access to addr 0x27c, rank/bank/row 0 0 0
1176000: DRAM: system.mem_ctrl.dram: Schedule RD/WR burst at tick 1176000
1194750: DRAM: system.mem_ctrl.dram: number of read entries for rank 0 is 0
1225000: DRAM: system.mem_ctrl.dram: Address: 0x280 Rank 0 Bank 0 Row 0
1225000: DRAM: system.mem_ctrl.dram: Timing access to addr 0x280, rank/bank/row 0 0 0
1225000: DRAM: system.mem_ctrl.dram: Schedule RD/WR burst at tick 1225000
1243750: DRAM: system.mem_ctrl.dram: number of read entries for rank 0 is 0
1274000: DRAM: system.mem_ctrl.dram: Address: 0x77d24 Rank 1 Bank 3 Row 3
1295000: DRAM: system.mem_ctrl.dram: Address: 0x284 Rank 0 Bank 0 Row 0
1295000: DRAM: system.mem_ctrl.dram: Timing access to addr 0x284, rank/bank/row 0 0 0
1295000: DRAM: system.mem_ctrl.dram: Schedule RD/WR burst at tick 1295000
1313750: DRAM: system.mem_ctrl.dram: number of read entries for rank 0 is 0
1365000: DRAM: system.mem_ctrl.dram: Address: 0x288 Rank 0 Bank 0 Row 0
1365000: DRAM: system.mem_ctrl.dram: Timing access to addr 0x288, rank/bank/row 0 0 0
1365000: DRAM: system.mem_ctrl.dram: Schedule RD/WR burst at tick 1365000
1383750: DRAM: system.mem_ctrl.dram: number of read entries for rank 0 is 0
1435000: DRAM: system.mem_ctrl.dram: Address: 0x28c Rank 0 Bank 0 Row 0
1435000: DRAM: system.mem_ctrl.dram: Timing access to addr 0x28c, rank/bank/row 0 0 0
1435000: DRAM: system.mem_ctrl.dram: Schedule RD/WR burst at tick 1435000
1453750: DRAM: system.mem_ctrl.dram: number of read entries for rank 0 is 0
1484000: DRAM: system.mem_ctrl.dram: Address: 0x77e68 Rank 1 Bank 3 Row 3
1484000: DRAM: system.mem_ctrl.dram: Timing access to addr 0x77e68, rank/bank/row 1 3 3
1484000: DRAM: system.mem_ctrl.dram: Schedule RD/WR burst at tick 1484000
1502750: DRAM: system.mem_ctrl.dram: number of read entries for rank 1 is 0
1533000: DRAM: system.mem_ctrl.dram: Address: 0x290 Rank 0 Bank 0 Row 0
1533000: DRAM: system.mem_ctrl.dram: Timing access to addr 0x290, rank/bank/row 0 0 0
1533000: DRAM: system.mem_ctrl.dram: Schedule RD/WR burst at tick 1533000
1551750: DRAM: system.mem_ctrl.dram: number of read entries for rank 0 is 0
1582000: DRAM: system.mem_ctrl.dram: Address: 0x77e6c Rank 1 Bank 3 Row 3
1582000: DRAM: system.mem_ctrl.dram: Timing access to addr 0x77e6c, rank/bank/row 1 3 3
1582000: DRAM: system.mem_ctrl.dram: Schedule RD/WR burst at tick 1582000
1600750: DRAM: system.mem_ctrl.dram: number of read entries for rank 1 is 0
1631000: DRAM: system.mem_ctrl.dram: Address: 0x294 Rank 0 Bank 0 Row 0
1631000: DRAM: system.mem_ctrl.dram: Timing access to addr 0x294, rank/bank/row 0 0 0
1631000: DRAM: system.mem_ctrl.dram: Schedule RD/WR burst at tick 1631000
1649750: DRAM: system.mem_ctrl.dram: number of read entries for rank 0 is 0
1680000: DRAM: system.mem_ctrl.dram: Address: 0x298 Rank 0 Bank 0 Row 0
1680000: DRAM: system.mem_ctrl.dram: Timing access to addr 0x298, rank/bank/row 0 0 0
1680000: DRAM: system.mem_ctrl.dram: Schedule RD/WR burst at tick 1680000
1698750: DRAM: system.mem_ctrl.dram: number of read entries for rank 0 is 0
1729000: DRAM: system.mem_ctrl.dram: Address: 0x29c Rank 0 Bank 0 Row 0
1729000: DRAM: system.mem_ctrl.dram: Timing access to addr 0x29c, rank/bank/row 0 0 0
1729000: DRAM: system.mem_ctrl.dram: Schedule RD/WR burst at tick 1729000
1747750: DRAM: system.mem_ctrl.dram: number of read entries for rank 0 is 0
1778000: DRAM: system.mem_ctrl.dram: Address: 0x77d28 Rank 1 Bank 3 Row 3
1778000: DRAM: system.mem_ctrl.dram: Timing access to addr 0x77d28, rank/bank/row 1 3 3
1778000: DRAM: system.mem_ctrl.dram: Schedule RD/WR burst at tick 1778000
1796750: DRAM: system.mem_ctrl.dram: number of read entries for rank 1 is 0
1827000: DRAM: system.mem_ctrl.dram: Address: 0x2a0 Rank 0 Bank 0 Row 0
1827000: DRAM: system.mem_ctrl.dram: Timing access to addr 0x2a0, rank/bank/row 0 0 0
1827000: DRAM: system.mem_ctrl.dram: Schedule RD/WR burst at tick 1827000
1845750: DRAM: system.mem_ctrl.dram: number of read entries for rank 0 is 0
1876000: DRAM: system.mem_ctrl.dram: Address: 0x510 Rank 0 Bank 0 Row 0
1876000: DRAM: system.mem_ctrl.dram: Timing access to addr 0x510, rank/bank/row 0 0 0
1876000: DRAM: system.mem_ctrl.dram: Schedule RD/WR burst at tick 1876000
1894750: DRAM: system.mem_ctrl.dram: number of read entries for rank 0 is 0
1925000: DRAM: system.mem_ctrl.dram: Address: 0x2a4 Rank 0 Bank 0 Row 0
1925000: DRAM: system.mem_ctrl.dram: Timing access to addr 0x2a4, rank/bank/row 0 0 0
1925000: DRAM: system.mem_ctrl.dram: Schedule RD/WR burst at tick 1925000
1943750: DRAM: system.mem_ctrl.dram: number of read entries for rank 0 is 0
1974000: DRAM: system.mem_ctrl.dram: Address: 0x2a8 Rank 0 Bank 0 Row 0
1974000: DRAM: system.mem_ctrl.dram: Timing access to addr 0x2a8, rank/bank/row 0 0 0
1974000: DRAM: system.mem_ctrl.dram: Schedule RD/WR burst at tick 1974000
1992750: DRAM: system.mem_ctrl.dram: number of read entries for rank 0 is 0
2043000: DRAM: system.mem_ctrl.dram: Address: 0x2ac Rank 0 Bank 0 Row 0
2043000: DRAM: system.mem_ctrl.dram: Timing access to addr 0x2ac, rank/bank/row 0 0 0
2043000: DRAM: system.mem_ctrl.dram: Schedule RD/WR burst at tick 2043000
2043000: DRAM: system.mem_ctrl.dram: Precharging bank 0, rank 0 at tick 2050500, now got 0 active
2043000: DRAM: system.mem_ctrl.dram: Auto-precharged bank: 0
2061750: DRAM: system.mem_ctrl.dram: number of read entries for rank 0 is 0
2092000: DRAM: system.mem_ctrl.dram: Address: 0x2b0 Rank 0 Bank 0 Row 0
2092000: DRAM: system.mem_ctrl.dram: Timing access to addr 0x2b0, rank/bank/row 0 0 0
2092000: DRAM: system.mem_ctrl.dram: Activate at tick 2092000
2092000: DRAM: system.mem_ctrl.dram: Activate bank 0, rank 0 at tick 2092000, now got 1 active
2092000: DRAM: system.mem_ctrl.dram: Schedule RD/WR burst at tick 2105750
2124500: DRAM: system.mem_ctrl.dram: number of read entries for rank 0 is 0
2155000: DRAM: system.mem_ctrl.dram: Address: 0x2b4 Rank 0 Bank 0 Row 0
2155000: DRAM: system.mem_ctrl.dram: Timing access to addr 0x2b4, rank/bank/row 0 0 0
2155000: DRAM: system.mem_ctrl.dram: Schedule RD/WR burst at tick 2155000
2173750: DRAM: system.mem_ctrl.dram: number of read entries for rank 0 is 0
2204000: DRAM: system.mem_ctrl.dram: Address: 0x514 Rank 0 Bank 0 Row 0
2204000: DRAM: system.mem_ctrl.dram: Timing access to addr 0x514, rank/bank/row 0 0 0
2204000: DRAM: system.mem_ctrl.dram: Schedule RD/WR burst at tick 2204000
2222750: DRAM: system.mem_ctrl.dram: number of read entries for rank 0 is 0
2253000: DRAM: system.mem_ctrl.dram: Address: 0x2b8 Rank 0 Bank 0 Row 0
2253000: DRAM: system.mem_ctrl.dram: Timing access to addr 0x2b8, rank/bank/row 0 0 0
2253000: DRAM: system.mem_ctrl.dram: Schedule RD/WR burst at tick 2253000
2271750: DRAM: system.mem_ctrl.dram: number of read entries for rank 0 is 0
2302000: DRAM: system.mem_ctrl.dram: Address: 0x2bc Rank 0 Bank 0 Row 0
2302000: DRAM: system.mem_ctrl.dram: Timing access to addr 0x2bc, rank/bank/row 0 0 0
2302000: DRAM: system.mem_ctrl.dram: Schedule RD/WR burst at tick 2302000
2320750: DRAM: system.mem_ctrl.dram: number of read entries for rank 0 is 0
2351000: DRAM: system.mem_ctrl.dram: Address: 0x75508 Rank 1 Bank 2 Row 3
2372000: DRAM: system.mem_ctrl.dram: Address: 0x2c0 Rank 0 Bank 0 Row 0
2372000: DRAM: system.mem_ctrl.dram: Timing access to addr 0x2c0, rank/bank/row 0 0 0
2372000: DRAM: system.mem_ctrl.dram: Schedule RD/WR burst at tick 2372000
2390750: DRAM: system.mem_ctrl.dram: number of read entries for rank 0 is 0
2441000: DRAM: system.mem_ctrl.dram: Address: 0x2c4 Rank 0 Bank 0 Row 0
2441000: DRAM: system.mem_ctrl.dram: Timing access to addr 0x2c4, rank/bank/row 0 0 0
2441000: DRAM: system.mem_ctrl.dram: Schedule RD/WR burst at tick 2441000
2459750: DRAM: system.mem_ctrl.dram: number of read entries for rank 0 is 0
2490000: DRAM: system.mem_ctrl.dram: Address: 0x518 Rank 0 Bank 0 Row 0
2490000: DRAM: system.mem_ctrl.dram: Timing access to addr 0x518, rank/bank/row 0 0 0
2490000: DRAM: system.mem_ctrl.dram: Schedule RD/WR burst at tick 2490000
2508750: DRAM: system.mem_ctrl.dram: number of read entries for rank 0 is 0
2539000: DRAM: system.mem_ctrl.dram: Address: 0x2c8 Rank 0 Bank 0 Row 0
2539000: DRAM: system.mem_ctrl.dram: Timing access to addr 0x2c8, rank/bank/row 0 0 0
2539000: DRAM: system.mem_ctrl.dram: Schedule RD/WR burst at tick 2539000
2557750: DRAM: system.mem_ctrl.dram: number of read entries for rank 0 is 0
2588000: DRAM: system.mem_ctrl.dram: Address: 0x74fd8 Rank 1 Bank 2 Row 3
2609000: DRAM: system.mem_ctrl.dram: Address: 0x2cc Rank 0 Bank 0 Row 0
2609000: DRAM: system.mem_ctrl.dram: Timing access to addr 0x2cc, rank/bank/row 0 0 0
2609000: DRAM: system.mem_ctrl.dram: Schedule RD/WR burst at tick 2609000
2627750: DRAM: system.mem_ctrl.dram: number of read entries for rank 0 is 0
2658000: DRAM: system.mem_ctrl.dram: Address: 0x764fc Rank 1 Bank 3 Row 3
2679000: DRAM: system.mem_ctrl.dram: Address: 0x2d0 Rank 0 Bank 0 Row 0
2679000: DRAM: system.mem_ctrl.dram: Timing access to addr 0x2d0, rank/bank/row 0 0 0
2679000: DRAM: system.mem_ctrl.dram: Schedule RD/WR burst at tick 2679000
2697750: DRAM: system.mem_ctrl.dram: number of read entries for rank 0 is 0
2728000: DRAM: system.mem_ctrl.dram: Address: 0x77e7c Rank 1 Bank 3 Row 3
2728000: DRAM: system.mem_ctrl.dram: Timing access to addr 0x77e7c, rank/bank/row 1 3 3
2728000: DRAM: system.mem_ctrl.dram: Schedule RD/WR burst at tick 2728000
2746750: DRAM: system.mem_ctrl.dram: number of read entries for rank 1 is 0
2777000: DRAM: system.mem_ctrl.dram: Address: 0x2d4 Rank 0 Bank 0 Row 0
2777000: DRAM: system.mem_ctrl.dram: Timing access to addr 0x2d4, rank/bank/row 0 0 0
2777000: DRAM: system.mem_ctrl.dram: Schedule RD/WR burst at tick 2777000
2795750: DRAM: system.mem_ctrl.dram: number of read entries for rank 0 is 0
2826000: DRAM: system.mem_ctrl.dram: Address: 0x2d8 Rank 0 Bank 0 Row 0
2826000: DRAM: system.mem_ctrl.dram: Timing access to addr 0x2d8, rank/bank/row 0 0 0
2826000: DRAM: system.mem_ctrl.dram: Schedule RD/WR burst at tick 2826000
2844750: DRAM: system.mem_ctrl.dram: number of read entries for rank 0 is 0
2875000: DRAM: system.mem_ctrl.dram: Address: 0x2dc Rank 0 Bank 0 Row 0
2875000: DRAM: system.mem_ctrl.dram: Timing access to addr 0x2dc, rank/bank/row 0 0 0
2875000: DRAM: system.mem_ctrl.dram: Schedule RD/WR burst at tick 2875000
2893750: DRAM: system.mem_ctrl.dram: number of read entries for rank 0 is 0
2924000: DRAM: system.mem_ctrl.dram: Address: 0x2e0 Rank 0 Bank 0 Row 0
2924000: DRAM: system.mem_ctrl.dram: Timing access to addr 0x2e0, rank/bank/row 0 0 0
2924000: DRAM: system.mem_ctrl.dram: Schedule RD/WR burst at tick 2924000
2942750: DRAM: system.mem_ctrl.dram: number of read entries for rank 0 is 0
2973000: DRAM: system.mem_ctrl.dram: Address: 0xc3f4 Rank 0 Bank 6 Row 0
2973000: DRAM: system.mem_ctrl.dram: Timing access to addr 0xc3f4, rank/bank/row 0 6 0
2973000: DRAM: system.mem_ctrl.dram: Activate at tick 2973000
2973000: DRAM: system.mem_ctrl.dram: Activate bank 6, rank 0 at tick 2973000, now got 2 active
2973000: DRAM: system.mem_ctrl.dram: Schedule RD/WR burst at tick 2986750
3005500: DRAM: system.mem_ctrl.dram: number of read entries for rank 0 is 0
3036000: DRAM: system.mem_ctrl.dram: Address: 0x77e80 Rank 1 Bank 3 Row 3
3036000: DRAM: system.mem_ctrl.dram: Timing access to addr 0x77e80, rank/bank/row 1 3 3
3036000: DRAM: system.mem_ctrl.dram: Schedule RD/WR burst at tick 3036000
3054750: DRAM: system.mem_ctrl.dram: number of read entries for rank 1 is 0
3085000: DRAM: system.mem_ctrl.dram: Address: 0xc3f8 Rank 0 Bank 6 Row 0
3085000: DRAM: system.mem_ctrl.dram: Timing access to addr 0xc3f8, rank/bank/row 0 6 0
3085000: DRAM: system.mem_ctrl.dram: Schedule RD/WR burst at tick 3085000
3103750: DRAM: system.mem_ctrl.dram: number of read entries for rank 0 is 0
3302000: DRAM: system.mem_ctrl.dram: Address: 0xc3fc Rank 0 Bank 6 Row 0
3302000: DRAM: system.mem_ctrl.dram: Timing access to addr 0xc3fc, rank/bank/row 0 6 0
3302000: DRAM: system.mem_ctrl.dram: Schedule RD/WR burst at tick 3302000
3320750: DRAM: system.mem_ctrl.dram: number of read entries for rank 0 is 0
3351000: DRAM: system.mem_ctrl.dram: Address: 0xc400 Rank 0 Bank 6 Row 0
3351000: DRAM: system.mem_ctrl.dram: Timing access to addr 0xc400, rank/bank/row 0 6 0
3351000: DRAM: system.mem_ctrl.dram: Schedule RD/WR burst at tick 3351000
3369750: DRAM: system.mem_ctrl.dram: number of read entries for rank 0 is 0
3400000: DRAM: system.mem_ctrl.dram: Address: 0xc404 Rank 0 Bank 6 Row 0
3400000: DRAM: system.mem_ctrl.dram: Timing access to addr 0xc404, rank/bank/row 0 6 0
3400000: DRAM: system.mem_ctrl.dram: Schedule RD/WR burst at tick 3400000
3418750: DRAM: system.mem_ctrl.dram: number of read entries for rank 0 is 0
3449000: DRAM: system.mem_ctrl.dram: Address: 0xc408 Rank 0 Bank 6 Row 0
3449000: DRAM: system.mem_ctrl.dram: Timing access to addr 0xc408, rank/bank/row 0 6 0
3449000: DRAM: system.mem_ctrl.dram: Schedule RD/WR burst at tick 3449000
3467750: DRAM: system.mem_ctrl.dram: number of read entries for rank 0 is 0
3498000: DRAM: system.mem_ctrl.dram: Address: 0xc67c Rank 0 Bank 6 Row 0
3498000: DRAM: system.mem_ctrl.dram: Timing access to addr 0xc67c, rank/bank/row 0 6 0
3498000: DRAM: system.mem_ctrl.dram: Schedule RD/WR burst at tick 3498000
3516750: DRAM: system.mem_ctrl.dram: number of read entries for rank 0 is 0
3547000: DRAM: system.mem_ctrl.dram: Address: 0xc40c Rank 0 Bank 6 Row 0
3547000: DRAM: system.mem_ctrl.dram: Timing access to addr 0xc40c, rank/bank/row 0 6 0
3547000: DRAM: system.mem_ctrl.dram: Schedule RD/WR burst at tick 3547000
3565750: DRAM: system.mem_ctrl.dram: number of read entries for rank 0 is 0
3596000: DRAM: system.mem_ctrl.dram: Address: 0xc680 Rank 0 Bank 6 Row 0
3596000: DRAM: system.mem_ctrl.dram: Timing access to addr 0xc680, rank/bank/row 0 6 0
3596000: DRAM: system.mem_ctrl.dram: Schedule RD/WR burst at tick 3596000
3614750: DRAM: system.mem_ctrl.dram: number of read entries for rank 0 is 0
3645000: DRAM: system.mem_ctrl.dram: Address: 0xc410 Rank 0 Bank 6 Row 0
3645000: DRAM: system.mem_ctrl.dram: Timing access to addr 0xc410, rank/bank/row 0 6 0
3645000: DRAM: system.mem_ctrl.dram: Schedule RD/WR burst at tick 3645000
3663750: DRAM: system.mem_ctrl.dram: number of read entries for rank 0 is 0
3694000: DRAM: system.mem_ctrl.dram: Address: 0xc414 Rank 0 Bank 6 Row 0
3694000: DRAM: system.mem_ctrl.dram: Timing access to addr 0xc414, rank/bank/row 0 6 0
3694000: DRAM: system.mem_ctrl.dram: Schedule RD/WR burst at tick 3694000
3712750: DRAM: system.mem_ctrl.dram: number of read entries for rank 0 is 0
3743000: DRAM: system.mem_ctrl.dram: Address: 0x76f24 Rank 1 Bank 3 Row 3
3743000: DRAM: system.mem_ctrl.dram: Timing access to addr 0x76f24, rank/bank/row 1 3 3
3743000: DRAM: system.mem_ctrl.dram: Schedule RD/WR burst at tick 3743000
3761750: DRAM: system.mem_ctrl.dram: number of read entries for rank 1 is 0
3792000: DRAM: system.mem_ctrl.dram: Address: 0xc418 Rank 0 Bank 6 Row 0
3792000: DRAM: system.mem_ctrl.dram: Timing access to addr 0xc418, rank/bank/row 0 6 0
3792000: DRAM: system.mem_ctrl.dram: Schedule RD/WR burst at tick 3792000
3810750: DRAM: system.mem_ctrl.dram: number of read entries for rank 0 is 0
3841000: DRAM: system.mem_ctrl.dram: Address: 0xc684 Rank 0 Bank 6 Row 0
3841000: DRAM: system.mem_ctrl.dram: Timing access to addr 0xc684, rank/bank/row 0 6 0
3841000: DRAM: system.mem_ctrl.dram: Schedule RD/WR burst at tick 3841000
3859750: DRAM: system.mem_ctrl.dram: number of read entries for rank 0 is 0
3890000: DRAM: system.mem_ctrl.dram: Address: 0xc41c Rank 0 Bank 6 Row 0
3890000: DRAM: system.mem_ctrl.dram: Timing access to addr 0xc41c, rank/bank/row 0 6 0
3890000: DRAM: system.mem_ctrl.dram: Schedule RD/WR burst at tick 3890000
3908750: DRAM: system.mem_ctrl.dram: number of read entries for rank 0 is 0
3939000: DRAM: system.mem_ctrl.dram: Address: 0x76acc Rank 1 Bank 3 Row 3
3939000: DRAM: system.mem_ctrl.dram: Timing access to addr 0x76acc, rank/bank/row 1 3 3
3939000: DRAM: system.mem_ctrl.dram: Schedule RD/WR burst at tick 3939000
3957750: DRAM: system.mem_ctrl.dram: number of read entries for rank 1 is 0
3988000: DRAM: system.mem_ctrl.dram: Address: 0xc420 Rank 0 Bank 6 Row 0
3988000: DRAM: system.mem_ctrl.dram: Timing access to addr 0xc420, rank/bank/row 0 6 0
3988000: DRAM: system.mem_ctrl.dram: Schedule RD/WR burst at tick 3988000
4006750: DRAM: system.mem_ctrl.dram: number of read entries for rank 0 is 0
4037000: DRAM: system.mem_ctrl.dram: Address: 0xc424 Rank 0 Bank 6 Row 0
4037000: DRAM: system.mem_ctrl.dram: Timing access to addr 0xc424, rank/bank/row 0 6 0
4037000: DRAM: system.mem_ctrl.dram: Schedule RD/WR burst at tick 4037000
4037000: DRAM: system.mem_ctrl.dram: Precharging bank 6, rank 0 at tick 4044500, now got 1 active
4037000: DRAM: system.mem_ctrl.dram: Auto-precharged bank: 6
4055750: DRAM: system.mem_ctrl.dram: number of read entries for rank 0 is 0
4086000: DRAM: system.mem_ctrl.dram: Address: 0x74fdc Rank 1 Bank 2 Row 3
4086000: DRAM: system.mem_ctrl.dram: Timing access to addr 0x74fdc, rank/bank/row 1 2 3
4086000: DRAM: system.mem_ctrl.dram: Activate at tick 4086000
4086000: DRAM: system.mem_ctrl.dram: Activate bank 2, rank 1 at tick 4086000, now got 2 active
4086000: DRAM: system.mem_ctrl.dram: Schedule RD/WR burst at tick 4099750
4118500: DRAM: system.mem_ctrl.dram: number of read entries for rank 1 is 0
4149000: DRAM: system.mem_ctrl.dram: Address: 0xc428 Rank 0 Bank 6 Row 0
4149000: DRAM: system.mem_ctrl.dram: Timing access to addr 0xc428, rank/bank/row 0 6 0
4149000: DRAM: system.mem_ctrl.dram: Activate at tick 4149000
4149000: DRAM: system.mem_ctrl.dram: Activate bank 6, rank 0 at tick 4149000, now got 2 active
4149000: DRAM: system.mem_ctrl.dram: Schedule RD/WR burst at tick 4162750
4181500: DRAM: system.mem_ctrl.dram: number of read entries for rank 0 is 0
4212000: DRAM: system.mem_ctrl.dram: Address: 0xc42c Rank 0 Bank 6 Row 0
4212000: DRAM: system.mem_ctrl.dram: Timing access to addr 0xc42c, rank/bank/row 0 6 0
4212000: DRAM: system.mem_ctrl.dram: Schedule RD/WR burst at tick 4212000
4230750: DRAM: system.mem_ctrl.dram: number of read entries for rank 0 is 0
4261000: DRAM: system.mem_ctrl.dram: Address: 0x77cfc Rank 1 Bank 3 Row 3
4282000: DRAM: system.mem_ctrl.dram: Address: 0xc430 Rank 0 Bank 6 Row 0
4282000: DRAM: system.mem_ctrl.dram: Timing access to addr 0xc430, rank/bank/row 0 6 0
4282000: DRAM: system.mem_ctrl.dram: Schedule RD/WR burst at tick 4282000
4300750: DRAM: system.mem_ctrl.dram: number of read entries for rank 0 is 0
4331000: DRAM: system.mem_ctrl.dram: Address: 0xc688 Rank 0 Bank 6 Row 0
4331000: DRAM: system.mem_ctrl.dram: Timing access to addr 0xc688, rank/bank/row 0 6 0
4331000: DRAM: system.mem_ctrl.dram: Schedule RD/WR burst at tick 4331000
4349750: DRAM: system.mem_ctrl.dram: number of read entries for rank 0 is 0
4380000: DRAM: system.mem_ctrl.dram: Address: 0xc434 Rank 0 Bank 6 Row 0
4380000: DRAM: system.mem_ctrl.dram: Timing access to addr 0xc434, rank/bank/row 0 6 0
4380000: DRAM: system.mem_ctrl.dram: Schedule RD/WR burst at tick 4380000
4398750: DRAM: system.mem_ctrl.dram: number of read entries for rank 0 is 0
4429000: DRAM: system.mem_ctrl.dram: Address: 0x76ed8 Rank 1 Bank 3 Row 3
4429000: DRAM: system.mem_ctrl.dram: Timing access to addr 0x76ed8, rank/bank/row 1 3 3
4429000: DRAM: system.mem_ctrl.dram: Schedule RD/WR burst at tick 4429000
4447750: DRAM: system.mem_ctrl.dram: number of read entries for rank 1 is 0
4478000: DRAM: system.mem_ctrl.dram: Address: 0xc438 Rank 0 Bank 6 Row 0
4478000: DRAM: system.mem_ctrl.dram: Timing access to addr 0xc438, rank/bank/row 0 6 0
4478000: DRAM: system.mem_ctrl.dram: Schedule RD/WR burst at tick 4478000
4496750: DRAM: system.mem_ctrl.dram: number of read entries for rank 0 is 0
4527000: DRAM: system.mem_ctrl.dram: Address: 0x76ac8 Rank 1 Bank 3 Row 3
4527000: DRAM: system.mem_ctrl.dram: Timing access to addr 0x76ac8, rank/bank/row 1 3 3
4527000: DRAM: system.mem_ctrl.dram: Schedule RD/WR burst at tick 4527000
4545750: DRAM: system.mem_ctrl.dram: number of read entries for rank 1 is 0
4576000: DRAM: system.mem_ctrl.dram: Address: 0xc43c Rank 0 Bank 6 Row 0
4576000: DRAM: system.mem_ctrl.dram: Timing access to addr 0xc43c, rank/bank/row 0 6 0
4576000: DRAM: system.mem_ctrl.dram: Schedule RD/WR burst at tick 4576000
4594750: DRAM: system.mem_ctrl.dram: number of read entries for rank 0 is 0
4646000: DRAM: system.mem_ctrl.dram: Address: 0xc440 Rank 0 Bank 6 Row 0
4646000: DRAM: system.mem_ctrl.dram: Timing access to addr 0xc440, rank/bank/row 0 6 0
4646000: DRAM: system.mem_ctrl.dram: Schedule RD/WR burst at tick 4646000
4664750: DRAM: system.mem_ctrl.dram: number of read entries for rank 0 is 0
4695000: DRAM: system.mem_ctrl.dram: Address: 0xc68c Rank 0 Bank 6 Row 0
4695000: DRAM: system.mem_ctrl.dram: Timing access to addr 0xc68c, rank/bank/row 0 6 0
4695000: DRAM: system.mem_ctrl.dram: Schedule RD/WR burst at tick 4695000
4713750: DRAM: system.mem_ctrl.dram: number of read entries for rank 0 is 0
4744000: DRAM: system.mem_ctrl.dram: Address: 0xc444 Rank 0 Bank 6 Row 0
4744000: DRAM: system.mem_ctrl.dram: Timing access to addr 0xc444, rank/bank/row 0 6 0
4744000: DRAM: system.mem_ctrl.dram: Schedule RD/WR burst at tick 4744000
4762750: DRAM: system.mem_ctrl.dram: number of read entries for rank 0 is 0
4793000: DRAM: system.mem_ctrl.dram: Address: 0x76ee4 Rank 1 Bank 3 Row 3
4793000: DRAM: system.mem_ctrl.dram: Timing access to addr 0x76ee4, rank/bank/row 1 3 3
4793000: DRAM: system.mem_ctrl.dram: Schedule RD/WR burst at tick 4793000
4811750: DRAM: system.mem_ctrl.dram: number of read entries for rank 1 is 0
4842000: DRAM: system.mem_ctrl.dram: Address: 0xc448 Rank 0 Bank 6 Row 0
4842000: DRAM: system.mem_ctrl.dram: Timing access to addr 0xc448, rank/bank/row 0 6 0
4842000: DRAM: system.mem_ctrl.dram: Schedule RD/WR burst at tick 4842000
4860750: DRAM: system.mem_ctrl.dram: number of read entries for rank 0 is 0
4891000: DRAM: system.mem_ctrl.dram: Address: 0xc690 Rank 0 Bank 6 Row 0
4891000: DRAM: system.mem_ctrl.dram: Timing access to addr 0xc690, rank/bank/row 0 6 0
4891000: DRAM: system.mem_ctrl.dram: Schedule RD/WR burst at tick 4891000
4909750: DRAM: system.mem_ctrl.dram: number of read entries for rank 0 is 0
4940000: DRAM: system.mem_ctrl.dram: Address: 0xc44c Rank 0 Bank 6 Row 0
4940000: DRAM: system.mem_ctrl.dram: Timing access to addr 0xc44c, rank/bank/row 0 6 0
4940000: DRAM: system.mem_ctrl.dram: Schedule RD/WR burst at tick 4940000
4958750: DRAM: system.mem_ctrl.dram: number of read entries for rank 0 is 0
4989000: DRAM: system.mem_ctrl.dram: Address: 0x76ec4 Rank 1 Bank 3 Row 3
4989000: DRAM: system.mem_ctrl.dram: Timing access to addr 0x76ec4, rank/bank/row 1 3 3
4989000: DRAM: system.mem_ctrl.dram: Schedule RD/WR burst at tick 4989000
5007750: DRAM: system.mem_ctrl.dram: number of read entries for rank 1 is 0
5038000: DRAM: system.mem_ctrl.dram: Address: 0xc450 Rank 0 Bank 6 Row 0
5038000: DRAM: system.mem_ctrl.dram: Timing access to addr 0xc450, rank/bank/row 0 6 0
5038000: DRAM: system.mem_ctrl.dram: Schedule RD/WR burst at tick 5038000
5056750: DRAM: system.mem_ctrl.dram: number of read entries for rank 0 is 0
5087000: DRAM: system.mem_ctrl.dram: Address: 0xc694 Rank 0 Bank 6 Row 0
5087000: DRAM: system.mem_ctrl.dram: Timing access to addr 0xc694, rank/bank/row 0 6 0
5087000: DRAM: system.mem_ctrl.dram: Schedule RD/WR burst at tick 5087000
5105750: DRAM: system.mem_ctrl.dram: number of read entries for rank 0 is 0
5136000: DRAM: system.mem_ctrl.dram: Address: 0xc454 Rank 0 Bank 6 Row 0
5136000: DRAM: system.mem_ctrl.dram: Timing access to addr 0xc454, rank/bank/row 0 6 0
5136000: DRAM: system.mem_ctrl.dram: Schedule RD/WR burst at tick 5136000
5136000: DRAM: system.mem_ctrl.dram: Precharging bank 6, rank 0 at tick 5143500, now got 1 active
5136000: DRAM: system.mem_ctrl.dram: Auto-precharged bank: 6
5154750: DRAM: system.mem_ctrl.dram: number of read entries for rank 0 is 0
5185000: DRAM: system.mem_ctrl.dram: Address: 0x76ed0 Rank 1 Bank 3 Row 3
5185000: DRAM: system.mem_ctrl.dram: Timing access to addr 0x76ed0, rank/bank/row 1 3 3
5185000: DRAM: system.mem_ctrl.dram: Schedule RD/WR burst at tick 5185000
5203750: DRAM: system.mem_ctrl.dram: number of read entries for rank 1 is 0
5234000: DRAM: system.mem_ctrl.dram: Address: 0xc458 Rank 0 Bank 6 Row 0
5234000: DRAM: system.mem_ctrl.dram: Timing access to addr 0xc458, rank/bank/row 0 6 0
5234000: DRAM: system.mem_ctrl.dram: Activate at tick 5234000
5234000: DRAM: system.mem_ctrl.dram: Activate bank 6, rank 0 at tick 5234000, now got 2 active
5234000: DRAM: system.mem_ctrl.dram: Schedule RD/WR burst at tick 5247750
5266500: DRAM: system.mem_ctrl.dram: number of read entries for rank 0 is 0
5297000: DRAM: system.mem_ctrl.dram: Address: 0xc698 Rank 0 Bank 6 Row 0
5297000: DRAM: system.mem_ctrl.dram: Timing access to addr 0xc698, rank/bank/row 0 6 0
5297000: DRAM: system.mem_ctrl.dram: Schedule RD/WR burst at tick 5297000
5315750: DRAM: system.mem_ctrl.dram: number of read entries for rank 0 is 0
5346000: DRAM: system.mem_ctrl.dram: Address: 0xc45c Rank 0 Bank 6 Row 0
5346000: DRAM: system.mem_ctrl.dram: Timing access to addr 0xc45c, rank/bank/row 0 6 0
5346000: DRAM: system.mem_ctrl.dram: Schedule RD/WR burst at tick 5346000
5364750: DRAM: system.mem_ctrl.dram: number of read entries for rank 0 is 0
5395000: DRAM: system.mem_ctrl.dram: Address: 0x76efc Rank 1 Bank 3 Row 3
5395000: DRAM: system.mem_ctrl.dram: Timing access to addr 0x76efc, rank/bank/row 1 3 3
5395000: DRAM: system.mem_ctrl.dram: Schedule RD/WR burst at tick 5395000
5413750: DRAM: system.mem_ctrl.dram: number of read entries for rank 1 is 0
5444000: DRAM: system.mem_ctrl.dram: Address: 0xc460 Rank 0 Bank 6 Row 0
5444000: DRAM: system.mem_ctrl.dram: Timing access to addr 0xc460, rank/bank/row 0 6 0
5444000: DRAM: system.mem_ctrl.dram: Schedule RD/WR burst at tick 5444000
5462750: DRAM: system.mem_ctrl.dram: number of read entries for rank 0 is 0
5493000: DRAM: system.mem_ctrl.dram: Address: 0xc464 Rank 0 Bank 6 Row 0
5493000: DRAM: system.mem_ctrl.dram: Timing access to addr 0xc464, rank/bank/row 0 6 0
5493000: DRAM: system.mem_ctrl.dram: Schedule RD/WR burst at tick 5493000
5511750: DRAM: system.mem_ctrl.dram: number of read entries for rank 0 is 0
5542000: DRAM: system.mem_ctrl.dram: Address: 0xc468 Rank 0 Bank 6 Row 0
5542000: DRAM: system.mem_ctrl.dram: Timing access to addr 0xc468, rank/bank/row 0 6 0
5542000: DRAM: system.mem_ctrl.dram: Schedule RD/WR burst at tick 5542000
5560750: DRAM: system.mem_ctrl.dram: number of read entries for rank 0 is 0
5591000: DRAM: system.mem_ctrl.dram: Address: 0xc46c Rank 0 Bank 6 Row 0
5591000: DRAM: system.mem_ctrl.dram: Timing access to addr 0xc46c, rank/bank/row 0 6 0
5591000: DRAM: system.mem_ctrl.dram: Schedule RD/WR burst at tick 5591000
5609750: DRAM: system.mem_ctrl.dram: number of read entries for rank 0 is 0
5640000: DRAM: system.mem_ctrl.dram: Address: 0xc4a8 Rank 0 Bank 6 Row 0
5640000: DRAM: system.mem_ctrl.dram: Timing access to addr 0xc4a8, rank/bank/row 0 6 0
5640000: DRAM: system.mem_ctrl.dram: Schedule RD/WR burst at tick 5640000
5658750: DRAM: system.mem_ctrl.dram: number of read entries for rank 0 is 0
5689000: DRAM: system.mem_ctrl.dram: Address: 0xc5b4 Rank 0 Bank 6 Row 0
5689000: DRAM: system.mem_ctrl.dram: Timing access to addr 0xc5b4, rank/bank/row 0 6 0
5689000: DRAM: system.mem_ctrl.dram: Schedule RD/WR burst at tick 5689000
5707750: DRAM: system.mem_ctrl.dram: number of read entries for rank 0 is 0
5738000: DRAM: system.mem_ctrl.dram: Address: 0x77e84 Rank 1 Bank 3 Row 3
5738000: DRAM: system.mem_ctrl.dram: Timing access to addr 0x77e84, rank/bank/row 1 3 3
5738000: DRAM: system.mem_ctrl.dram: Schedule RD/WR burst at tick 5738000
5756750: DRAM: system.mem_ctrl.dram: number of read entries for rank 1 is 0
5787000: DRAM: system.mem_ctrl.dram: Address: 0xc5b8 Rank 0 Bank 6 Row 0
5787000: DRAM: system.mem_ctrl.dram: Timing access to addr 0xc5b8, rank/bank/row 0 6 0
5787000: DRAM: system.mem_ctrl.dram: Schedule RD/WR burst at tick 5787000
5805750: DRAM: system.mem_ctrl.dram: number of read entries for rank 0 is 0
5836000: DRAM: system.mem_ctrl.dram: Address: 0xc5bc Rank 0 Bank 6 Row 0
5836000: DRAM: system.mem_ctrl.dram: Timing access to addr 0xc5bc, rank/bank/row 0 6 0
5836000: DRAM: system.mem_ctrl.dram: Schedule RD/WR burst at tick 5836000
5854750: DRAM: system.mem_ctrl.dram: number of read entries for rank 0 is 0
5906000: DRAM: system.mem_ctrl.dram: Address: 0xc5c0 Rank 0 Bank 6 Row 0
5906000: DRAM: system.mem_ctrl.dram: Timing access to addr 0xc5c0, rank/bank/row 0 6 0
5906000: DRAM: system.mem_ctrl.dram: Schedule RD/WR burst at tick 5906000
5924750: DRAM: system.mem_ctrl.dram: number of read entries for rank 0 is 0
5955000: DRAM: system.mem_ctrl.dram: Address: 0x77e88 Rank 1 Bank 3 Row 3
5955000: DRAM: system.mem_ctrl.dram: Timing access to addr 0x77e88, rank/bank/row 1 3 3
5955000: DRAM: system.mem_ctrl.dram: Schedule RD/WR burst at tick 5955000
5955000: DRAM: system.mem_ctrl.dram: Precharging bank 3, rank 1 at tick 5962500, now got 1 active
5955000: DRAM: system.mem_ctrl.dram: Auto-precharged bank: 11
5973750: DRAM: system.mem_ctrl.dram: number of read entries for rank 1 is 0
6004000: DRAM: system.mem_ctrl.dram: Address: 0xc5c4 Rank 0 Bank 6 Row 0
6004000: DRAM: system.mem_ctrl.dram: Timing access to addr 0xc5c4, rank/bank/row 0 6 0
6004000: DRAM: system.mem_ctrl.dram: Schedule RD/WR burst at tick 6004000
6022750: DRAM: system.mem_ctrl.dram: number of read entries for rank 0 is 0
6053000: DRAM: system.mem_ctrl.dram: Address: 0xc5c8 Rank 0 Bank 6 Row 0
6053000: DRAM: system.mem_ctrl.dram: Timing access to addr 0xc5c8, rank/bank/row 0 6 0
6053000: DRAM: system.mem_ctrl.dram: Schedule RD/WR burst at tick 6053000
6071750: DRAM: system.mem_ctrl.dram: number of read entries for rank 0 is 0
6102000: DRAM: system.mem_ctrl.dram: Address: 0xc464 Rank 0 Bank 6 Row 0
6102000: DRAM: system.mem_ctrl.dram: Timing access to addr 0xc464, rank/bank/row 0 6 0
6102000: DRAM: system.mem_ctrl.dram: Schedule RD/WR burst at tick 6102000
6120750: DRAM: system.mem_ctrl.dram: number of read entries for rank 0 is 0
6151000: DRAM: system.mem_ctrl.dram: Address: 0xc468 Rank 0 Bank 6 Row 0
6151000: DRAM: system.mem_ctrl.dram: Timing access to addr 0xc468, rank/bank/row 0 6 0
6151000: DRAM: system.mem_ctrl.dram: Schedule RD/WR burst at tick 6151000
6151000: DRAM: system.mem_ctrl.dram: Precharging bank 6, rank 0 at tick 6158500, now got 1 active
6151000: DRAM: system.mem_ctrl.dram: Auto-precharged bank: 6
6169750: DRAM: system.mem_ctrl.dram: number of read entries for rank 0 is 0
6200000: DRAM: system.mem_ctrl.dram: Address: 0xc46c Rank 0 Bank 6 Row 0
6200000: DRAM: system.mem_ctrl.dram: Timing access to addr 0xc46c, rank/bank/row 0 6 0
6200000: DRAM: system.mem_ctrl.dram: Activate at tick 6200000
6200000: DRAM: system.mem_ctrl.dram: Activate bank 6, rank 0 at tick 6200000, now got 2 active
6200000: DRAM: system.mem_ctrl.dram: Schedule RD/WR burst at tick 6213750
6232500: DRAM: system.mem_ctrl.dram: number of read entries for rank 0 is 0
6263000: DRAM: system.mem_ctrl.dram: Address: 0xc4ac Rank 0 Bank 6 Row 0
6263000: DRAM: system.mem_ctrl.dram: Timing access to addr 0xc4ac, rank/bank/row 0 6 0
6263000: DRAM: system.mem_ctrl.dram: Schedule RD/WR burst at tick 6263000
6281750: DRAM: system.mem_ctrl.dram: number of read entries for rank 0 is 0
6312000: DRAM: system.mem_ctrl.dram: Address: 0xc5a0 Rank 0 Bank 6 Row 0
6312000: DRAM: system.mem_ctrl.dram: Timing access to addr 0xc5a0, rank/bank/row 0 6 0
6312000: DRAM: system.mem_ctrl.dram: Schedule RD/WR burst at tick 6312000
6330750: DRAM: system.mem_ctrl.dram: number of read entries for rank 0 is 0
6361000: DRAM: system.mem_ctrl.dram: Address: 0x77e8c Rank 1 Bank 3 Row 3
6361000: DRAM: system.mem_ctrl.dram: Timing access to addr 0x77e8c, rank/bank/row 1 3 3
6361000: DRAM: system.mem_ctrl.dram: Activate at tick 6361000
6361000: DRAM: system.mem_ctrl.dram: Activate bank 3, rank 1 at tick 6361000, now got 2 active
6361000: DRAM: system.mem_ctrl.dram: Schedule RD/WR burst at tick 6374750
6393500: DRAM: system.mem_ctrl.dram: number of read entries for rank 1 is 0
6424000: DRAM: system.mem_ctrl.dram: Address: 0xc5a4 Rank 0 Bank 6 Row 0
6424000: DRAM: system.mem_ctrl.dram: Timing access to addr 0xc5a4, rank/bank/row 0 6 0
6424000: DRAM: system.mem_ctrl.dram: Schedule RD/WR burst at tick 6424000
6442750: DRAM: system.mem_ctrl.dram: number of read entries for rank 0 is 0
6473000: DRAM: system.mem_ctrl.dram: Address: 0x77e90 Rank 1 Bank 3 Row 3
6473000: DRAM: system.mem_ctrl.dram: Timing access to addr 0x77e90, rank/bank/row 1 3 3
6473000: DRAM: system.mem_ctrl.dram: Schedule RD/WR burst at tick 6473000
6491750: DRAM: system.mem_ctrl.dram: number of read entries for rank 1 is 0
6522000: DRAM: system.mem_ctrl.dram: Address: 0xc5a8 Rank 0 Bank 6 Row 0
6522000: DRAM: system.mem_ctrl.dram: Timing access to addr 0xc5a8, rank/bank/row 0 6 0
6522000: DRAM: system.mem_ctrl.dram: Schedule RD/WR burst at tick 6522000
6540750: DRAM: system.mem_ctrl.dram: number of read entries for rank 0 is 0
6571000: DRAM: system.mem_ctrl.dram: Address: 0xc5ac Rank 0 Bank 6 Row 0
6571000: DRAM: system.mem_ctrl.dram: Timing access to addr 0xc5ac, rank/bank/row 0 6 0
6571000: DRAM: system.mem_ctrl.dram: Schedule RD/WR burst at tick 6571000
6589750: DRAM: system.mem_ctrl.dram: number of read entries for rank 0 is 0
6620000: DRAM: system.mem_ctrl.dram: Address: 0xc464 Rank 0 Bank 6 Row 0
6620000: DRAM: system.mem_ctrl.dram: Timing access to addr 0xc464, rank/bank/row 0 6 0
6620000: DRAM: system.mem_ctrl.dram: Schedule RD/WR burst at tick 6620000
6638750: DRAM: system.mem_ctrl.dram: number of read entries for rank 0 is 0
6669000: DRAM: system.mem_ctrl.dram: Address: 0xc468 Rank 0 Bank 6 Row 0
6669000: DRAM: system.mem_ctrl.dram: Timing access to addr 0xc468, rank/bank/row 0 6 0
6669000: DRAM: system.mem_ctrl.dram: Schedule RD/WR burst at tick 6669000
6687750: DRAM: system.mem_ctrl.dram: number of read entries for rank 0 is 0
6718000: DRAM: system.mem_ctrl.dram: Address: 0xc46c Rank 0 Bank 6 Row 0
6718000: DRAM: system.mem_ctrl.dram: Timing access to addr 0xc46c, rank/bank/row 0 6 0
6718000: DRAM: system.mem_ctrl.dram: Schedule RD/WR burst at tick 6718000
6736750: DRAM: system.mem_ctrl.dram: number of read entries for rank 0 is 0
6767000: DRAM: system.mem_ctrl.dram: Address: 0xc4c4 Rank 0 Bank 6 Row 0
6767000: DRAM: system.mem_ctrl.dram: Timing access to addr 0xc4c4, rank/bank/row 0 6 0
6767000: DRAM: system.mem_ctrl.dram: Schedule RD/WR burst at tick 6767000
6785750: DRAM: system.mem_ctrl.dram: number of read entries for rank 0 is 0
6816000: DRAM: system.mem_ctrl.dram: Address: 0xc4f0 Rank 0 Bank 6 Row 0
6816000: DRAM: system.mem_ctrl.dram: Timing access to addr 0xc4f0, rank/bank/row 0 6 0
6816000: DRAM: system.mem_ctrl.dram: Schedule RD/WR burst at tick 6816000
6834750: DRAM: system.mem_ctrl.dram: number of read entries for rank 0 is 0
6865000: DRAM: system.mem_ctrl.dram: Address: 0x77e94 Rank 1 Bank 3 Row 3
6865000: DRAM: system.mem_ctrl.dram: Timing access to addr 0x77e94, rank/bank/row 1 3 3
6865000: DRAM: system.mem_ctrl.dram: Schedule RD/WR burst at tick 6865000
6883750: DRAM: system.mem_ctrl.dram: number of read entries for rank 1 is 0
6914000: DRAM: system.mem_ctrl.dram: Address: 0xc4f4 Rank 0 Bank 6 Row 0
6914000: DRAM: system.mem_ctrl.dram: Timing access to addr 0xc4f4, rank/bank/row 0 6 0
6914000: DRAM: system.mem_ctrl.dram: Schedule RD/WR burst at tick 6914000
6932750: DRAM: system.mem_ctrl.dram: number of read entries for rank 0 is 0
6963000: DRAM: system.mem_ctrl.dram: Address: 0xc4f8 Rank 0 Bank 6 Row 0
6963000: DRAM: system.mem_ctrl.dram: Timing access to addr 0xc4f8, rank/bank/row 0 6 0
6963000: DRAM: system.mem_ctrl.dram: Schedule RD/WR burst at tick 6963000
6981750: DRAM: system.mem_ctrl.dram: number of read entries for rank 0 is 0
7033000: DRAM: system.mem_ctrl.dram: Address: 0xc4fc Rank 0 Bank 6 Row 0
7033000: DRAM: system.mem_ctrl.dram: Timing access to addr 0xc4fc, rank/bank/row 0 6 0
7033000: DRAM: system.mem_ctrl.dram: Schedule RD/WR burst at tick 7033000
7051750: DRAM: system.mem_ctrl.dram: number of read entries for rank 0 is 0
7082000: DRAM: system.mem_ctrl.dram: Address: 0xc500 Rank 0 Bank 6 Row 0
7082000: DRAM: system.mem_ctrl.dram: Timing access to addr 0xc500, rank/bank/row 0 6 0
7082000: DRAM: system.mem_ctrl.dram: Schedule RD/WR burst at tick 7082000
7100750: DRAM: system.mem_ctrl.dram: number of read entries for rank 0 is 0
7131000: DRAM: system.mem_ctrl.dram: Address: 0x77e98 Rank 1 Bank 3 Row 3
7131000: DRAM: system.mem_ctrl.dram: Timing access to addr 0x77e98, rank/bank/row 1 3 3
7131000: DRAM: system.mem_ctrl.dram: Schedule RD/WR burst at tick 7131000
7149750: DRAM: system.mem_ctrl.dram: number of read entries for rank 1 is 0
7180000: DRAM: system.mem_ctrl.dram: Address: 0xc504 Rank 0 Bank 6 Row 0
7180000: DRAM: system.mem_ctrl.dram: Timing access to addr 0xc504, rank/bank/row 0 6 0
7180000: DRAM: system.mem_ctrl.dram: Schedule RD/WR burst at tick 7180000
7180000: DRAM: system.mem_ctrl.dram: Precharging bank 6, rank 0 at tick 7187500, now got 1 active
7180000: DRAM: system.mem_ctrl.dram: Auto-precharged bank: 6
7198750: DRAM: system.mem_ctrl.dram: number of read entries for rank 0 is 0
7229000: DRAM: system.mem_ctrl.dram: Address: 0xc508 Rank 0 Bank 6 Row 0
7229000: DRAM: system.mem_ctrl.dram: Timing access to addr 0xc508, rank/bank/row 0 6 0
7229000: DRAM: system.mem_ctrl.dram: Activate at tick 7229000
7229000: DRAM: system.mem_ctrl.dram: Activate bank 6, rank 0 at tick 7229000, now got 2 active
7229000: DRAM: system.mem_ctrl.dram: Schedule RD/WR burst at tick 7242750
7261500: DRAM: system.mem_ctrl.dram: number of read entries for rank 0 is 0
7292000: DRAM: system.mem_ctrl.dram: Address: 0xc464 Rank 0 Bank 6 Row 0
7292000: DRAM: system.mem_ctrl.dram: Timing access to addr 0xc464, rank/bank/row 0 6 0
7292000: DRAM: system.mem_ctrl.dram: Schedule RD/WR burst at tick 7292000
7310750: DRAM: system.mem_ctrl.dram: number of read entries for rank 0 is 0
7341000: DRAM: system.mem_ctrl.dram: Address: 0xc468 Rank 0 Bank 6 Row 0
7341000: DRAM: system.mem_ctrl.dram: Timing access to addr 0xc468, rank/bank/row 0 6 0
7341000: DRAM: system.mem_ctrl.dram: Schedule RD/WR burst at tick 7341000
7359750: DRAM: system.mem_ctrl.dram: number of read entries for rank 0 is 0
7390000: DRAM: system.mem_ctrl.dram: Address: 0xc46c Rank 0 Bank 6 Row 0
7390000: DRAM: system.mem_ctrl.dram: Timing access to addr 0xc46c, rank/bank/row 0 6 0
7390000: DRAM: system.mem_ctrl.dram: Schedule RD/WR burst at tick 7390000
7408750: DRAM: system.mem_ctrl.dram: number of read entries for rank 0 is 0
7439000: DRAM: system.mem_ctrl.dram: Address: 0xc4cc Rank 0 Bank 6 Row 0
7439000: DRAM: system.mem_ctrl.dram: Timing access to addr 0xc4cc, rank/bank/row 0 6 0
7439000: DRAM: system.mem_ctrl.dram: Schedule RD/WR burst at tick 7439000
7457750: DRAM: system.mem_ctrl.dram: number of read entries for rank 0 is 0
7488000: DRAM: system.mem_ctrl.dram: Address: 0xc500 Rank 0 Bank 6 Row 0
7488000: DRAM: system.mem_ctrl.dram: Timing access to addr 0xc500, rank/bank/row 0 6 0
7488000: DRAM: system.mem_ctrl.dram: Schedule RD/WR burst at tick 7488000
7506750: DRAM: system.mem_ctrl.dram: number of read entries for rank 0 is 0
7537000: DRAM: system.mem_ctrl.dram: Address: 0x77ea0 Rank 1 Bank 3 Row 3
7537000: DRAM: system.mem_ctrl.dram: Timing access to addr 0x77ea0, rank/bank/row 1 3 3
7537000: DRAM: system.mem_ctrl.dram: Schedule RD/WR burst at tick 7537000
7555750: DRAM: system.mem_ctrl.dram: number of read entries for rank 1 is 0
7586000: DRAM: system.mem_ctrl.dram: Address: 0xc504 Rank 0 Bank 6 Row 0
7586000: DRAM: system.mem_ctrl.dram: Timing access to addr 0xc504, rank/bank/row 0 6 0
7586000: DRAM: system.mem_ctrl.dram: Schedule RD/WR burst at tick 7586000
7604750: DRAM: system.mem_ctrl.dram: number of read entries for rank 0 is 0
7635000: DRAM: system.mem_ctrl.dram: Address: 0xc508 Rank 0 Bank 6 Row 0
7635000: DRAM: system.mem_ctrl.dram: Timing access to addr 0xc508, rank/bank/row 0 6 0
7635000: DRAM: system.mem_ctrl.dram: Schedule RD/WR burst at tick 7635000
7653750: DRAM: system.mem_ctrl.dram: number of read entries for rank 0 is 0
7684000: DRAM: system.mem_ctrl.dram: Address: 0xc464 Rank 0 Bank 6 Row 0
7684000: DRAM: system.mem_ctrl.dram: Timing access to addr 0xc464, rank/bank/row 0 6 0
7684000: DRAM: system.mem_ctrl.dram: Schedule RD/WR burst at tick 7684000
7702750: DRAM: system.mem_ctrl.dram: number of read entries for rank 0 is 0
7733000: DRAM: system.mem_ctrl.dram: Address: 0xc468 Rank 0 Bank 6 Row 0
7733000: DRAM: system.mem_ctrl.dram: Timing access to addr 0xc468, rank/bank/row 0 6 0
7733000: DRAM: system.mem_ctrl.dram: Schedule RD/WR burst at tick 7733000
7751750: DRAM: system.mem_ctrl.dram: number of read entries for rank 0 is 0
7782000: DRAM: system.mem_ctrl.dram: Address: 0xc46c Rank 0 Bank 6 Row 0
7782000: DRAM: system.mem_ctrl.dram: Timing access to addr 0xc46c, rank/bank/row 0 6 0
7782000: DRAM: system.mem_ctrl.dram: Schedule RD/WR burst at tick 7782000
7786250: DRAM: 1: Refresh due
7786250: DRAM: 1: Precharging all
7786250: DRAM: system.mem_ctrl.dram: Precharging bank 2, rank 1 at tick 7786250, now got 1 active
7786250: DRAM: system.mem_ctrl.dram: Precharging bank 3, rank 1 at tick 7786250, now got 0 active
7786250: DRAM: 0: Refresh due
7786250: DRAM: 0: Precharging all
7786250: DRAM: system.mem_ctrl.dram: Precharging bank 0, rank 0 at tick 7789500, now got 1 active
7786250: DRAM: system.mem_ctrl.dram: Precharging bank 6, rank 0 at tick 7789500, now got 0 active
7800750: DRAM: system.mem_ctrl.dram: number of read entries for rank 0 is 0
7831000: DRAM: system.mem_ctrl.dram: Address: 0xc4e4 Rank 0 Bank 6 Row 0
8060000: DRAM: 1: Scheduling next request after refreshing rank 1
8063250: DRAM: 0: Scheduling next request after refreshing rank 0
8063250: DRAM: system.mem_ctrl.dram: Timing access to addr 0xc4e4, rank/bank/row 0 6 0
8063250: DRAM: system.mem_ctrl.dram: Activate at tick 8063250
8063250: DRAM: system.mem_ctrl.dram: Activate bank 6, rank 0 at tick 8063250, now got 1 active
8063250: DRAM: system.mem_ctrl.dram: Schedule RD/WR burst at tick 8077000
8095750: DRAM: system.mem_ctrl.dram: number of read entries for rank 0 is 0
8126000: DRAM: system.mem_ctrl.dram: Address: 0xc500 Rank 0 Bank 6 Row 0
8126000: DRAM: system.mem_ctrl.dram: Timing access to addr 0xc500, rank/bank/row 0 6 0
8126000: DRAM: system.mem_ctrl.dram: Schedule RD/WR burst at tick 8126000
8144750: DRAM: system.mem_ctrl.dram: number of read entries for rank 0 is 0
8175000: DRAM: system.mem_ctrl.dram: Address: 0x77ea8 Rank 1 Bank 3 Row 3
8175000: DRAM: system.mem_ctrl.dram: Timing access to addr 0x77ea8, rank/bank/row 1 3 3
8175000: DRAM: system.mem_ctrl.dram: Activate at tick 8175000
8175000: DRAM: system.mem_ctrl.dram: Activate bank 3, rank 1 at tick 8175000, now got 1 active
8175000: DRAM: system.mem_ctrl.dram: Schedule RD/WR burst at tick 8188750
8207500: DRAM: system.mem_ctrl.dram: number of read entries for rank 1 is 0
8238000: DRAM: system.mem_ctrl.dram: Address: 0xc504 Rank 0 Bank 6 Row 0
8238000: DRAM: system.mem_ctrl.dram: Timing access to addr 0xc504, rank/bank/row 0 6 0
8238000: DRAM: system.mem_ctrl.dram: Schedule RD/WR burst at tick 8238000
8256750: DRAM: system.mem_ctrl.dram: number of read entries for rank 0 is 0
8287000: DRAM: system.mem_ctrl.dram: Address: 0xc508 Rank 0 Bank 6 Row 0
8287000: DRAM: system.mem_ctrl.dram: Timing access to addr 0xc508, rank/bank/row 0 6 0
8287000: DRAM: system.mem_ctrl.dram: Schedule RD/WR burst at tick 8287000
8305750: DRAM: system.mem_ctrl.dram: number of read entries for rank 0 is 0
8336000: DRAM: system.mem_ctrl.dram: Address: 0xc464 Rank 0 Bank 6 Row 0
8336000: DRAM: system.mem_ctrl.dram: Timing access to addr 0xc464, rank/bank/row 0 6 0
8336000: DRAM: system.mem_ctrl.dram: Schedule RD/WR burst at tick 8336000
8354750: DRAM: system.mem_ctrl.dram: number of read entries for rank 0 is 0
8385000: DRAM: system.mem_ctrl.dram: Address: 0xc468 Rank 0 Bank 6 Row 0
8385000: DRAM: system.mem_ctrl.dram: Timing access to addr 0xc468, rank/bank/row 0 6 0
8385000: DRAM: system.mem_ctrl.dram: Schedule RD/WR burst at tick 8385000
8403750: DRAM: system.mem_ctrl.dram: number of read entries for rank 0 is 0
8434000: DRAM: system.mem_ctrl.dram: Address: 0xc46c Rank 0 Bank 6 Row 0
8434000: DRAM: system.mem_ctrl.dram: Timing access to addr 0xc46c, rank/bank/row 0 6 0
8434000: DRAM: system.mem_ctrl.dram: Schedule RD/WR burst at tick 8434000
8452750: DRAM: system.mem_ctrl.dram: number of read entries for rank 0 is 0
8483000: DRAM: system.mem_ctrl.dram: Address: 0xc4a4 Rank 0 Bank 6 Row 0
8483000: DRAM: system.mem_ctrl.dram: Timing access to addr 0xc4a4, rank/bank/row 0 6 0
8483000: DRAM: system.mem_ctrl.dram: Schedule RD/WR burst at tick 8483000
8501750: DRAM: system.mem_ctrl.dram: number of read entries for rank 0 is 0
8532000: DRAM: system.mem_ctrl.dram: Address: 0xc500 Rank 0 Bank 6 Row 0
8532000: DRAM: system.mem_ctrl.dram: Timing access to addr 0xc500, rank/bank/row 0 6 0
8532000: DRAM: system.mem_ctrl.dram: Schedule RD/WR burst at tick 8532000
8550750: DRAM: system.mem_ctrl.dram: number of read entries for rank 0 is 0
8581000: DRAM: system.mem_ctrl.dram: Address: 0x77eb0 Rank 1 Bank 3 Row 3
8581000: DRAM: system.mem_ctrl.dram: Timing access to addr 0x77eb0, rank/bank/row 1 3 3
8581000: DRAM: system.mem_ctrl.dram: Schedule RD/WR burst at tick 8581000
8599750: DRAM: system.mem_ctrl.dram: number of read entries for rank 1 is 0
8630000: DRAM: system.mem_ctrl.dram: Address: 0xc504 Rank 0 Bank 6 Row 0
8630000: DRAM: system.mem_ctrl.dram: Timing access to addr 0xc504, rank/bank/row 0 6 0
8630000: DRAM: system.mem_ctrl.dram: Schedule RD/WR burst at tick 8630000
8648750: DRAM: system.mem_ctrl.dram: number of read entries for rank 0 is 0
8679000: DRAM: system.mem_ctrl.dram: Address: 0xc508 Rank 0 Bank 6 Row 0
8679000: DRAM: system.mem_ctrl.dram: Timing access to addr 0xc508, rank/bank/row 0 6 0
8679000: DRAM: system.mem_ctrl.dram: Schedule RD/WR burst at tick 8679000
8697750: DRAM: system.mem_ctrl.dram: number of read entries for rank 0 is 0
8728000: DRAM: system.mem_ctrl.dram: Address: 0xc464 Rank 0 Bank 6 Row 0
8728000: DRAM: system.mem_ctrl.dram: Timing access to addr 0xc464, rank/bank/row 0 6 0
8728000: DRAM: system.mem_ctrl.dram: Schedule RD/WR burst at tick 8728000
8746750: DRAM: system.mem_ctrl.dram: number of read entries for rank 0 is 0
8777000: DRAM: system.mem_ctrl.dram: Address: 0xc468 Rank 0 Bank 6 Row 0
8777000: DRAM: system.mem_ctrl.dram: Timing access to addr 0xc468, rank/bank/row 0 6 0
8777000: DRAM: system.mem_ctrl.dram: Schedule RD/WR burst at tick 8777000
8795750: DRAM: system.mem_ctrl.dram: number of read entries for rank 0 is 0
8826000: DRAM: system.mem_ctrl.dram: Address: 0xc46c Rank 0 Bank 6 Row 0
8826000: DRAM: system.mem_ctrl.dram: Timing access to addr 0xc46c, rank/bank/row 0 6 0
8826000: DRAM: system.mem_ctrl.dram: Schedule RD/WR burst at tick 8826000
8844750: DRAM: system.mem_ctrl.dram: number of read entries for rank 0 is 0
8875000: DRAM: system.mem_ctrl.dram: Address: 0xc480 Rank 0 Bank 6 Row 0
8875000: DRAM: system.mem_ctrl.dram: Timing access to addr 0xc480, rank/bank/row 0 6 0
8875000: DRAM: system.mem_ctrl.dram: Schedule RD/WR burst at tick 8875000
8893750: DRAM: system.mem_ctrl.dram: number of read entries for rank 0 is 0
8924000: DRAM: system.mem_ctrl.dram: Address: 0xc640 Rank 0 Bank 6 Row 0
8924000: DRAM: system.mem_ctrl.dram: Timing access to addr 0xc640, rank/bank/row 0 6 0
8924000: DRAM: system.mem_ctrl.dram: Schedule RD/WR burst at tick 8924000
8924000: DRAM: system.mem_ctrl.dram: Precharging bank 6, rank 0 at tick 8931500, now got 0 active
8924000: DRAM: system.mem_ctrl.dram: Auto-precharged bank: 6
8942750: DRAM: system.mem_ctrl.dram: number of read entries for rank 0 is 0
8973000: DRAM: system.mem_ctrl.dram: Address: 0x77eb4 Rank 1 Bank 3 Row 3
8973000: DRAM: system.mem_ctrl.dram: Timing access to addr 0x77eb4, rank/bank/row 1 3 3
8973000: DRAM: system.mem_ctrl.dram: Schedule RD/WR burst at tick 8973000
8991750: DRAM: system.mem_ctrl.dram: number of read entries for rank 1 is 0
9022000: DRAM: system.mem_ctrl.dram: Address: 0xc644 Rank 0 Bank 6 Row 0
9022000: DRAM: system.mem_ctrl.dram: Timing access to addr 0xc644, rank/bank/row 0 6 0
9022000: DRAM: system.mem_ctrl.dram: Activate at tick 9022000
9022000: DRAM: system.mem_ctrl.dram: Activate bank 6, rank 0 at tick 9022000, now got 1 active
9022000: DRAM: system.mem_ctrl.dram: Schedule RD/WR burst at tick 9035750
9054500: DRAM: system.mem_ctrl.dram: number of read entries for rank 0 is 0
9085000: DRAM: system.mem_ctrl.dram: Address: 0x77eb8 Rank 1 Bank 3 Row 3
9085000: DRAM: system.mem_ctrl.dram: Timing access to addr 0x77eb8, rank/bank/row 1 3 3
9085000: DRAM: system.mem_ctrl.dram: Schedule RD/WR burst at tick 9085000
9103750: DRAM: system.mem_ctrl.dram: number of read entries for rank 1 is 0
9134000: DRAM: system.mem_ctrl.dram: Address: 0xc648 Rank 0 Bank 6 Row 0
9134000: DRAM: system.mem_ctrl.dram: Timing access to addr 0xc648, rank/bank/row 0 6 0
9134000: DRAM: system.mem_ctrl.dram: Schedule RD/WR burst at tick 9134000
9152750: DRAM: system.mem_ctrl.dram: number of read entries for rank 0 is 0
9183000: DRAM: system.mem_ctrl.dram: Address: 0xc64c Rank 0 Bank 6 Row 0
9183000: DRAM: system.mem_ctrl.dram: Timing access to addr 0xc64c, rank/bank/row 0 6 0
9183000: DRAM: system.mem_ctrl.dram: Schedule RD/WR burst at tick 9183000
9201750: DRAM: system.mem_ctrl.dram: number of read entries for rank 0 is 0
9232000: DRAM: system.mem_ctrl.dram: Address: 0xc464 Rank 0 Bank 6 Row 0
9232000: DRAM: system.mem_ctrl.dram: Timing access to addr 0xc464, rank/bank/row 0 6 0
9232000: DRAM: system.mem_ctrl.dram: Schedule RD/WR burst at tick 9232000
9250750: DRAM: system.mem_ctrl.dram: number of read entries for rank 0 is 0
9281000: DRAM: system.mem_ctrl.dram: Address: 0xc468 Rank 0 Bank 6 Row 0
9281000: DRAM: system.mem_ctrl.dram: Timing access to addr 0xc468, rank/bank/row 0 6 0
9281000: DRAM: system.mem_ctrl.dram: Schedule RD/WR burst at tick 9281000
9299750: DRAM: system.mem_ctrl.dram: number of read entries for rank 0 is 0
9330000: DRAM: system.mem_ctrl.dram: Address: 0xc46c Rank 0 Bank 6 Row 0
9330000: DRAM: system.mem_ctrl.dram: Timing access to addr 0xc46c, rank/bank/row 0 6 0
9330000: DRAM: system.mem_ctrl.dram: Schedule RD/WR burst at tick 9330000
9348750: DRAM: system.mem_ctrl.dram: number of read entries for rank 0 is 0
9379000: DRAM: system.mem_ctrl.dram: Address: 0xc474 Rank 0 Bank 6 Row 0
9379000: DRAM: system.mem_ctrl.dram: Timing access to addr 0xc474, rank/bank/row 0 6 0
9379000: DRAM: system.mem_ctrl.dram: Schedule RD/WR burst at tick 9379000
9397750: DRAM: system.mem_ctrl.dram: number of read entries for rank 0 is 0
9428000: DRAM: system.mem_ctrl.dram: Address: 0xc668 Rank 0 Bank 6 Row 0
9428000: DRAM: system.mem_ctrl.dram: Timing access to addr 0xc668, rank/bank/row 0 6 0
9428000: DRAM: system.mem_ctrl.dram: Schedule RD/WR burst at tick 9428000
9446750: DRAM: system.mem_ctrl.dram: number of read entries for rank 0 is 0
9477000: DRAM: system.mem_ctrl.dram: Address: 0x77ebc Rank 1 Bank 3 Row 3
9477000: DRAM: system.mem_ctrl.dram: Timing access to addr 0x77ebc, rank/bank/row 1 3 3
9477000: DRAM: system.mem_ctrl.dram: Schedule RD/WR burst at tick 9477000
9495750: DRAM: system.mem_ctrl.dram: number of read entries for rank 1 is 0
9526000: DRAM: system.mem_ctrl.dram: Address: 0xc66c Rank 0 Bank 6 Row 0
9526000: DRAM: system.mem_ctrl.dram: Timing access to addr 0xc66c, rank/bank/row 0 6 0
9526000: DRAM: system.mem_ctrl.dram: Schedule RD/WR burst at tick 9526000
9544750: DRAM: system.mem_ctrl.dram: number of read entries for rank 0 is 0
9575000: DRAM: system.mem_ctrl.dram: Address: 0x77ec0 Rank 1 Bank 3 Row 3
9575000: DRAM: system.mem_ctrl.dram: Timing access to addr 0x77ec0, rank/bank/row 1 3 3
9575000: DRAM: system.mem_ctrl.dram: Schedule RD/WR burst at tick 9575000
9593750: DRAM: system.mem_ctrl.dram: number of read entries for rank 1 is 0
9624000: DRAM: system.mem_ctrl.dram: Address: 0xc670 Rank 0 Bank 6 Row 0
9624000: DRAM: system.mem_ctrl.dram: Timing access to addr 0xc670, rank/bank/row 0 6 0
9624000: DRAM: system.mem_ctrl.dram: Schedule RD/WR burst at tick 9624000
9642750: DRAM: system.mem_ctrl.dram: number of read entries for rank 0 is 0
9673000: DRAM: system.mem_ctrl.dram: Address: 0xc674 Rank 0 Bank 6 Row 0
9673000: DRAM: system.mem_ctrl.dram: Timing access to addr 0xc674, rank/bank/row 0 6 0
9673000: DRAM: system.mem_ctrl.dram: Schedule RD/WR burst at tick 9673000
9691750: DRAM: system.mem_ctrl.dram: number of read entries for rank 0 is 0
9722000: DRAM: system.mem_ctrl.dram: Address: 0xc464 Rank 0 Bank 6 Row 0
9722000: DRAM: system.mem_ctrl.dram: Timing access to addr 0xc464, rank/bank/row 0 6 0
9722000: DRAM: system.mem_ctrl.dram: Schedule RD/WR burst at tick 9722000
9740750: DRAM: system.mem_ctrl.dram: number of read entries for rank 0 is 0
9771000: DRAM: system.mem_ctrl.dram: Address: 0xc468 Rank 0 Bank 6 Row 0
9771000: DRAM: system.mem_ctrl.dram: Timing access to addr 0xc468, rank/bank/row 0 6 0
9771000: DRAM: system.mem_ctrl.dram: Schedule RD/WR burst at tick 9771000
9789750: DRAM: system.mem_ctrl.dram: number of read entries for rank 0 is 0
9820000: DRAM: system.mem_ctrl.dram: Address: 0xc46c Rank 0 Bank 6 Row 0
9820000: DRAM: system.mem_ctrl.dram: Timing access to addr 0xc46c, rank/bank/row 0 6 0
9820000: DRAM: system.mem_ctrl.dram: Schedule RD/WR burst at tick 9820000
9838750: DRAM: system.mem_ctrl.dram: number of read entries for rank 0 is 0
9869000: DRAM: system.mem_ctrl.dram: Address: 0xc478 Rank 0 Bank 6 Row 0
9869000: DRAM: system.mem_ctrl.dram: Timing access to addr 0xc478, rank/bank/row 0 6 0
9869000: DRAM: system.mem_ctrl.dram: Schedule RD/WR burst at tick 9869000
9887750: DRAM: system.mem_ctrl.dram: number of read entries for rank 0 is 0
9918000: DRAM: system.mem_ctrl.dram: Address: 0xc500 Rank 0 Bank 6 Row 0
9918000: DRAM: system.mem_ctrl.dram: Timing access to addr 0xc500, rank/bank/row 0 6 0
9918000: DRAM: system.mem_ctrl.dram: Schedule RD/WR burst at tick 9918000
9918000: DRAM: system.mem_ctrl.dram: Precharging bank 6, rank 0 at tick 9925500, now got 0 active
9918000: DRAM: system.mem_ctrl.dram: Auto-precharged bank: 6
9936750: DRAM: system.mem_ctrl.dram: number of read entries for rank 0 is 0
9967000: DRAM: system.mem_ctrl.dram: Address: 0x77ec8 Rank 1 Bank 3 Row 3
9967000: DRAM: system.mem_ctrl.dram: Timing access to addr 0x77ec8, rank/bank/row 1 3 3
9967000: DRAM: system.mem_ctrl.dram: Schedule RD/WR burst at tick 9967000
9985750: DRAM: system.mem_ctrl.dram: number of read entries for rank 1 is 0
10016000: DRAM: system.mem_ctrl.dram: Address: 0xc504 Rank 0 Bank 6 Row 0
10016000: DRAM: system.mem_ctrl.dram: Timing access to addr 0xc504, rank/bank/row 0 6 0
10016000: DRAM: system.mem_ctrl.dram: Activate at tick 10016000
10016000: DRAM: system.mem_ctrl.dram: Activate bank 6, rank 0 at tick 10016000, now got 1 active
10016000: DRAM: system.mem_ctrl.dram: Schedule RD/WR burst at tick 10029750
10048500: DRAM: system.mem_ctrl.dram: number of read entries for rank 0 is 0
10079000: DRAM: system.mem_ctrl.dram: Address: 0xc508 Rank 0 Bank 6 Row 0
10079000: DRAM: system.mem_ctrl.dram: Timing access to addr 0xc508, rank/bank/row 0 6 0
10079000: DRAM: system.mem_ctrl.dram: Schedule RD/WR burst at tick 10079000
10097750: DRAM: system.mem_ctrl.dram: number of read entries for rank 0 is 0
10128000: DRAM: system.mem_ctrl.dram: Address: 0xc464 Rank 0 Bank 6 Row 0
10128000: DRAM: system.mem_ctrl.dram: Timing access to addr 0xc464, rank/bank/row 0 6 0
10128000: DRAM: system.mem_ctrl.dram: Schedule RD/WR burst at tick 10128000
10146750: DRAM: system.mem_ctrl.dram: number of read entries for rank 0 is 0
10177000: DRAM: system.mem_ctrl.dram: Address: 0xc468 Rank 0 Bank 6 Row 0
10177000: DRAM: system.mem_ctrl.dram: Timing access to addr 0xc468, rank/bank/row 0 6 0
10177000: DRAM: system.mem_ctrl.dram: Schedule RD/WR burst at tick 10177000
10195750: DRAM: system.mem_ctrl.dram: number of read entries for rank 0 is 0
10226000: DRAM: system.mem_ctrl.dram: Address: 0xc46c Rank 0 Bank 6 Row 0
10226000: DRAM: system.mem_ctrl.dram: Timing access to addr 0xc46c, rank/bank/row 0 6 0
10226000: DRAM: system.mem_ctrl.dram: Schedule RD/WR burst at tick 10226000
10244750: DRAM: system.mem_ctrl.dram: number of read entries for rank 0 is 0
10275000: DRAM: system.mem_ctrl.dram: Address: 0xc47c Rank 0 Bank 6 Row 0
10275000: DRAM: system.mem_ctrl.dram: Timing access to addr 0xc47c, rank/bank/row 0 6 0
10275000: DRAM: system.mem_ctrl.dram: Schedule RD/WR burst at tick 10275000
10293750: DRAM: system.mem_ctrl.dram: number of read entries for rank 0 is 0
10324000: DRAM: system.mem_ctrl.dram: Address: 0xc654 Rank 0 Bank 6 Row 0
10324000: DRAM: system.mem_ctrl.dram: Timing access to addr 0xc654, rank/bank/row 0 6 0
10324000: DRAM: system.mem_ctrl.dram: Schedule RD/WR burst at tick 10324000
10342750: DRAM: system.mem_ctrl.dram: number of read entries for rank 0 is 0
10373000: DRAM: system.mem_ctrl.dram: Address: 0x77ecc Rank 1 Bank 3 Row 3
10373000: DRAM: system.mem_ctrl.dram: Timing access to addr 0x77ecc, rank/bank/row 1 3 3
10373000: DRAM: system.mem_ctrl.dram: Schedule RD/WR burst at tick 10373000
10391750: DRAM: system.mem_ctrl.dram: number of read entries for rank 1 is 0
10422000: DRAM: system.mem_ctrl.dram: Address: 0xc658 Rank 0 Bank 6 Row 0
10422000: DRAM: system.mem_ctrl.dram: Timing access to addr 0xc658, rank/bank/row 0 6 0
10422000: DRAM: system.mem_ctrl.dram: Schedule RD/WR burst at tick 10422000
10440750: DRAM: system.mem_ctrl.dram: number of read entries for rank 0 is 0
10471000: DRAM: system.mem_ctrl.dram: Address: 0x77ed0 Rank 1 Bank 3 Row 3
10471000: DRAM: system.mem_ctrl.dram: Timing access to addr 0x77ed0, rank/bank/row 1 3 3
10471000: DRAM: system.mem_ctrl.dram: Schedule RD/WR burst at tick 10471000
10489750: DRAM: system.mem_ctrl.dram: number of read entries for rank 1 is 0
10520000: DRAM: system.mem_ctrl.dram: Address: 0xc65c Rank 0 Bank 6 Row 0
10520000: DRAM: system.mem_ctrl.dram: Timing access to addr 0xc65c, rank/bank/row 0 6 0
10520000: DRAM: system.mem_ctrl.dram: Schedule RD/WR burst at tick 10520000
10538750: DRAM: system.mem_ctrl.dram: number of read entries for rank 0 is 0
10569000: DRAM: system.mem_ctrl.dram: Address: 0xc660 Rank 0 Bank 6 Row 0
10569000: DRAM: system.mem_ctrl.dram: Timing access to addr 0xc660, rank/bank/row 0 6 0
10569000: DRAM: system.mem_ctrl.dram: Schedule RD/WR burst at tick 10569000
10587750: DRAM: system.mem_ctrl.dram: number of read entries for rank 0 is 0
10618000: DRAM: system.mem_ctrl.dram: Address: 0xc464 Rank 0 Bank 6 Row 0
10618000: DRAM: system.mem_ctrl.dram: Timing access to addr 0xc464, rank/bank/row 0 6 0
10618000: DRAM: system.mem_ctrl.dram: Schedule RD/WR burst at tick 10618000
10636750: DRAM: system.mem_ctrl.dram: number of read entries for rank 0 is 0
10667000: DRAM: system.mem_ctrl.dram: Address: 0xc468 Rank 0 Bank 6 Row 0
10667000: DRAM: system.mem_ctrl.dram: Timing access to addr 0xc468, rank/bank/row 0 6 0
10667000: DRAM: system.mem_ctrl.dram: Schedule RD/WR burst at tick 10667000
10685750: DRAM: system.mem_ctrl.dram: number of read entries for rank 0 is 0
10716000: DRAM: system.mem_ctrl.dram: Address: 0xc46c Rank 0 Bank 6 Row 0
10716000: DRAM: system.mem_ctrl.dram: Timing access to addr 0xc46c, rank/bank/row 0 6 0
10716000: DRAM: system.mem_ctrl.dram: Schedule RD/WR burst at tick 10716000
10734750: DRAM: system.mem_ctrl.dram: number of read entries for rank 0 is 0
10765000: DRAM: system.mem_ctrl.dram: Address: 0xc484 Rank 0 Bank 6 Row 0
10765000: DRAM: system.mem_ctrl.dram: Timing access to addr 0xc484, rank/bank/row 0 6 0
10765000: DRAM: system.mem_ctrl.dram: Schedule RD/WR burst at tick 10765000
10783750: DRAM: system.mem_ctrl.dram: number of read entries for rank 0 is 0
10814000: DRAM: system.mem_ctrl.dram: Address: 0xc500 Rank 0 Bank 6 Row 0
10814000: DRAM: system.mem_ctrl.dram: Timing access to addr 0xc500, rank/bank/row 0 6 0
10814000: DRAM: system.mem_ctrl.dram: Schedule RD/WR burst at tick 10814000
10832750: DRAM: system.mem_ctrl.dram: number of read entries for rank 0 is 0
10863000: DRAM: system.mem_ctrl.dram: Address: 0x77ed8 Rank 1 Bank 3 Row 3
10863000: DRAM: system.mem_ctrl.dram: Timing access to addr 0x77ed8, rank/bank/row 1 3 3
10863000: DRAM: system.mem_ctrl.dram: Schedule RD/WR burst at tick 10863000
10881750: DRAM: system.mem_ctrl.dram: number of read entries for rank 1 is 0
10912000: DRAM: system.mem_ctrl.dram: Address: 0xc504 Rank 0 Bank 6 Row 0
10912000: DRAM: system.mem_ctrl.dram: Timing access to addr 0xc504, rank/bank/row 0 6 0
10912000: DRAM: system.mem_ctrl.dram: Schedule RD/WR burst at tick 10912000
10912000: DRAM: system.mem_ctrl.dram: Precharging bank 6, rank 0 at tick 10919500, now got 0 active
10912000: DRAM: system.mem_ctrl.dram: Auto-precharged bank: 6
10930750: DRAM: system.mem_ctrl.dram: number of read entries for rank 0 is 0
10961000: DRAM: system.mem_ctrl.dram: Address: 0xc508 Rank 0 Bank 6 Row 0
10961000: DRAM: system.mem_ctrl.dram: Timing access to addr 0xc508, rank/bank/row 0 6 0
10961000: DRAM: system.mem_ctrl.dram: Activate at tick 10961000
10961000: DRAM: system.mem_ctrl.dram: Activate bank 6, rank 0 at tick 10961000, now got 1 active
10961000: DRAM: system.mem_ctrl.dram: Schedule RD/WR burst at tick 10974750
10993500: DRAM: system.mem_ctrl.dram: number of read entries for rank 0 is 0
11024000: DRAM: system.mem_ctrl.dram: Address: 0xc464 Rank 0 Bank 6 Row 0
11024000: DRAM: system.mem_ctrl.dram: Timing access to addr 0xc464, rank/bank/row 0 6 0
11024000: DRAM: system.mem_ctrl.dram: Schedule RD/WR burst at tick 11024000
11042750: DRAM: system.mem_ctrl.dram: number of read entries for rank 0 is 0
11073000: DRAM: system.mem_ctrl.dram: Address: 0xc468 Rank 0 Bank 6 Row 0
11073000: DRAM: system.mem_ctrl.dram: Timing access to addr 0xc468, rank/bank/row 0 6 0
11073000: DRAM: system.mem_ctrl.dram: Schedule RD/WR burst at tick 11073000
11091750: DRAM: system.mem_ctrl.dram: number of read entries for rank 0 is 0
11122000: DRAM: system.mem_ctrl.dram: Address: 0xc46c Rank 0 Bank 6 Row 0
11122000: DRAM: system.mem_ctrl.dram: Timing access to addr 0xc46c, rank/bank/row 0 6 0
11122000: DRAM: system.mem_ctrl.dram: Schedule RD/WR burst at tick 11122000
11140750: DRAM: system.mem_ctrl.dram: number of read entries for rank 0 is 0
11171000: DRAM: system.mem_ctrl.dram: Address: 0xc488 Rank 0 Bank 6 Row 0
11171000: DRAM: system.mem_ctrl.dram: Timing access to addr 0xc488, rank/bank/row 0 6 0
11171000: DRAM: system.mem_ctrl.dram: Schedule RD/WR burst at tick 11171000
11189750: DRAM: system.mem_ctrl.dram: number of read entries for rank 0 is 0
11220000: DRAM: system.mem_ctrl.dram: Address: 0xc500 Rank 0 Bank 6 Row 0
11220000: DRAM: system.mem_ctrl.dram: Timing access to addr 0xc500, rank/bank/row 0 6 0
11220000: DRAM: system.mem_ctrl.dram: Schedule RD/WR burst at tick 11220000
11238750: DRAM: system.mem_ctrl.dram: number of read entries for rank 0 is 0
11269000: DRAM: system.mem_ctrl.dram: Address: 0x77ee0 Rank 1 Bank 3 Row 3
11269000: DRAM: system.mem_ctrl.dram: Timing access to addr 0x77ee0, rank/bank/row 1 3 3
11269000: DRAM: system.mem_ctrl.dram: Schedule RD/WR burst at tick 11269000
11287750: DRAM: system.mem_ctrl.dram: number of read entries for rank 1 is 0
11318000: DRAM: system.mem_ctrl.dram: Address: 0xc504 Rank 0 Bank 6 Row 0
11318000: DRAM: system.mem_ctrl.dram: Timing access to addr 0xc504, rank/bank/row 0 6 0
11318000: DRAM: system.mem_ctrl.dram: Schedule RD/WR burst at tick 11318000
11336750: DRAM: system.mem_ctrl.dram: number of read entries for rank 0 is 0
11367000: DRAM: system.mem_ctrl.dram: Address: 0xc508 Rank 0 Bank 6 Row 0
11367000: DRAM: system.mem_ctrl.dram: Timing access to addr 0xc508, rank/bank/row 0 6 0
11367000: DRAM: system.mem_ctrl.dram: Schedule RD/WR burst at tick 11367000
11385750: DRAM: system.mem_ctrl.dram: number of read entries for rank 0 is 0
11416000: DRAM: system.mem_ctrl.dram: Address: 0xc464 Rank 0 Bank 6 Row 0
11416000: DRAM: system.mem_ctrl.dram: Timing access to addr 0xc464, rank/bank/row 0 6 0
11416000: DRAM: system.mem_ctrl.dram: Schedule RD/WR burst at tick 11416000
11434750: DRAM: system.mem_ctrl.dram: number of read entries for rank 0 is 0
11465000: DRAM: system.mem_ctrl.dram: Address: 0xc468 Rank 0 Bank 6 Row 0
11465000: DRAM: system.mem_ctrl.dram: Timing access to addr 0xc468, rank/bank/row 0 6 0
11465000: DRAM: system.mem_ctrl.dram: Schedule RD/WR burst at tick 11465000
11483750: DRAM: system.mem_ctrl.dram: number of read entries for rank 0 is 0
11514000: DRAM: system.mem_ctrl.dram: Address: 0xc46c Rank 0 Bank 6 Row 0
11514000: DRAM: system.mem_ctrl.dram: Timing access to addr 0xc46c, rank/bank/row 0 6 0
11514000: DRAM: system.mem_ctrl.dram: Schedule RD/WR burst at tick 11514000
11532750: DRAM: system.mem_ctrl.dram: number of read entries for rank 0 is 0
11563000: DRAM: system.mem_ctrl.dram: Address: 0xc48c Rank 0 Bank 6 Row 0
11563000: DRAM: system.mem_ctrl.dram: Timing access to addr 0xc48c, rank/bank/row 0 6 0
11563000: DRAM: system.mem_ctrl.dram: Schedule RD/WR burst at tick 11563000
11581750: DRAM: system.mem_ctrl.dram: number of read entries for rank 0 is 0
11612000: DRAM: system.mem_ctrl.dram: Address: 0xc500 Rank 0 Bank 6 Row 0
11612000: DRAM: system.mem_ctrl.dram: Timing access to addr 0xc500, rank/bank/row 0 6 0
11612000: DRAM: system.mem_ctrl.dram: Schedule RD/WR burst at tick 11612000
11630750: DRAM: system.mem_ctrl.dram: number of read entries for rank 0 is 0
11661000: DRAM: system.mem_ctrl.dram: Address: 0x77ee8 Rank 1 Bank 3 Row 3
11661000: DRAM: system.mem_ctrl.dram: Timing access to addr 0x77ee8, rank/bank/row 1 3 3
11661000: DRAM: system.mem_ctrl.dram: Schedule RD/WR burst at tick 11661000
11679750: DRAM: system.mem_ctrl.dram: number of read entries for rank 1 is 0
11710000: DRAM: system.mem_ctrl.dram: Address: 0xc504 Rank 0 Bank 6 Row 0
11710000: DRAM: system.mem_ctrl.dram: Timing access to addr 0xc504, rank/bank/row 0 6 0
11710000: DRAM: system.mem_ctrl.dram: Schedule RD/WR burst at tick 11710000
11728750: DRAM: system.mem_ctrl.dram: number of read entries for rank 0 is 0
11759000: DRAM: system.mem_ctrl.dram: Address: 0xc508 Rank 0 Bank 6 Row 0
11759000: DRAM: system.mem_ctrl.dram: Timing access to addr 0xc508, rank/bank/row 0 6 0
11759000: DRAM: system.mem_ctrl.dram: Schedule RD/WR burst at tick 11759000
11777750: DRAM: system.mem_ctrl.dram: number of read entries for rank 0 is 0
11808000: DRAM: system.mem_ctrl.dram: Address: 0xc464 Rank 0 Bank 6 Row 0
11808000: DRAM: system.mem_ctrl.dram: Timing access to addr 0xc464, rank/bank/row 0 6 0
11808000: DRAM: system.mem_ctrl.dram: Schedule RD/WR burst at tick 11808000
11808000: DRAM: system.mem_ctrl.dram: Precharging bank 6, rank 0 at tick 11815500, now got 0 active
11808000: DRAM: system.mem_ctrl.dram: Auto-precharged bank: 6
11826750: DRAM: system.mem_ctrl.dram: number of read entries for rank 0 is 0
11857000: DRAM: system.mem_ctrl.dram: Address: 0xc468 Rank 0 Bank 6 Row 0
11857000: DRAM: system.mem_ctrl.dram: Timing access to addr 0xc468, rank/bank/row 0 6 0
11857000: DRAM: system.mem_ctrl.dram: Activate at tick 11857000
11857000: DRAM: system.mem_ctrl.dram: Activate bank 6, rank 0 at tick 11857000, now got 1 active
11857000: DRAM: system.mem_ctrl.dram: Schedule RD/WR burst at tick 11870750
11889500: DRAM: system.mem_ctrl.dram: number of read entries for rank 0 is 0
11920000: DRAM: system.mem_ctrl.dram: Address: 0xc46c Rank 0 Bank 6 Row 0
11920000: DRAM: system.mem_ctrl.dram: Timing access to addr 0xc46c, rank/bank/row 0 6 0
11920000: DRAM: system.mem_ctrl.dram: Schedule RD/WR burst at tick 11920000
11938750: DRAM: system.mem_ctrl.dram: number of read entries for rank 0 is 0
11969000: DRAM: system.mem_ctrl.dram: Address: 0xc494 Rank 0 Bank 6 Row 0
11969000: DRAM: system.mem_ctrl.dram: Timing access to addr 0xc494, rank/bank/row 0 6 0
11969000: DRAM: system.mem_ctrl.dram: Schedule RD/WR burst at tick 11969000
11987750: DRAM: system.mem_ctrl.dram: number of read entries for rank 0 is 0
12018000: DRAM: system.mem_ctrl.dram: Address: 0xc624 Rank 0 Bank 6 Row 0
12018000: DRAM: system.mem_ctrl.dram: Timing access to addr 0xc624, rank/bank/row 0 6 0
12018000: DRAM: system.mem_ctrl.dram: Schedule RD/WR burst at tick 12018000
12036750: DRAM: system.mem_ctrl.dram: number of read entries for rank 0 is 0
12067000: DRAM: system.mem_ctrl.dram: Address: 0x77eec Rank 1 Bank 3 Row 3
12067000: DRAM: system.mem_ctrl.dram: Timing access to addr 0x77eec, rank/bank/row 1 3 3
12067000: DRAM: system.mem_ctrl.dram: Schedule RD/WR burst at tick 12067000
12085750: DRAM: system.mem_ctrl.dram: number of read entries for rank 1 is 0
12116000: DRAM: system.mem_ctrl.dram: Address: 0xc628 Rank 0 Bank 6 Row 0
12116000: DRAM: system.mem_ctrl.dram: Timing access to addr 0xc628, rank/bank/row 0 6 0
12116000: DRAM: system.mem_ctrl.dram: Schedule RD/WR burst at tick 12116000
12134750: DRAM: system.mem_ctrl.dram: number of read entries for rank 0 is 0
12165000: DRAM: system.mem_ctrl.dram: Address: 0xc62c Rank 0 Bank 6 Row 0
12165000: DRAM: system.mem_ctrl.dram: Timing access to addr 0xc62c, rank/bank/row 0 6 0
12165000: DRAM: system.mem_ctrl.dram: Schedule RD/WR burst at tick 12165000
12183750: DRAM: system.mem_ctrl.dram: number of read entries for rank 0 is 0
12214000: DRAM: system.mem_ctrl.dram: Address: 0xc630 Rank 0 Bank 6 Row 0
12214000: DRAM: system.mem_ctrl.dram: Timing access to addr 0xc630, rank/bank/row 0 6 0
12214000: DRAM: system.mem_ctrl.dram: Schedule RD/WR burst at tick 12214000
12232750: DRAM: system.mem_ctrl.dram: number of read entries for rank 0 is 0
12263000: DRAM: system.mem_ctrl.dram: Address: 0x77ef0 Rank 1 Bank 3 Row 3
12263000: DRAM: system.mem_ctrl.dram: Timing access to addr 0x77ef0, rank/bank/row 1 3 3
12263000: DRAM: system.mem_ctrl.dram: Schedule RD/WR burst at tick 12263000
12281750: DRAM: system.mem_ctrl.dram: number of read entries for rank 1 is 0
12312000: DRAM: system.mem_ctrl.dram: Address: 0xc634 Rank 0 Bank 6 Row 0
12312000: DRAM: system.mem_ctrl.dram: Timing access to addr 0xc634, rank/bank/row 0 6 0
12312000: DRAM: system.mem_ctrl.dram: Schedule RD/WR burst at tick 12312000
12330750: DRAM: system.mem_ctrl.dram: number of read entries for rank 0 is 0
12361000: DRAM: system.mem_ctrl.dram: Address: 0xc638 Rank 0 Bank 6 Row 0
12361000: DRAM: system.mem_ctrl.dram: Timing access to addr 0xc638, rank/bank/row 0 6 0
12361000: DRAM: system.mem_ctrl.dram: Schedule RD/WR burst at tick 12361000
12379750: DRAM: system.mem_ctrl.dram: number of read entries for rank 0 is 0
12410000: DRAM: system.mem_ctrl.dram: Address: 0xc464 Rank 0 Bank 6 Row 0
12410000: DRAM: system.mem_ctrl.dram: Timing access to addr 0xc464, rank/bank/row 0 6 0
12410000: DRAM: system.mem_ctrl.dram: Schedule RD/WR burst at tick 12410000
12428750: DRAM: system.mem_ctrl.dram: number of read entries for rank 0 is 0
12459000: DRAM: system.mem_ctrl.dram: Address: 0xc468 Rank 0 Bank 6 Row 0
12459000: DRAM: system.mem_ctrl.dram: Timing access to addr 0xc468, rank/bank/row 0 6 0
12459000: DRAM: system.mem_ctrl.dram: Schedule RD/WR burst at tick 12459000
12477750: DRAM: system.mem_ctrl.dram: number of read entries for rank 0 is 0
12508000: DRAM: system.mem_ctrl.dram: Address: 0xc46c Rank 0 Bank 6 Row 0
12508000: DRAM: system.mem_ctrl.dram: Timing access to addr 0xc46c, rank/bank/row 0 6 0
12508000: DRAM: system.mem_ctrl.dram: Schedule RD/WR burst at tick 12508000
12526750: DRAM: system.mem_ctrl.dram: number of read entries for rank 0 is 0
12557000: DRAM: system.mem_ctrl.dram: Address: 0xc498 Rank 0 Bank 6 Row 0
12557000: DRAM: system.mem_ctrl.dram: Timing access to addr 0xc498, rank/bank/row 0 6 0
12557000: DRAM: system.mem_ctrl.dram: Schedule RD/WR burst at tick 12557000
12575750: DRAM: system.mem_ctrl.dram: number of read entries for rank 0 is 0
12606000: DRAM: system.mem_ctrl.dram: Address: 0xc608 Rank 0 Bank 6 Row 0
12606000: DRAM: system.mem_ctrl.dram: Timing access to addr 0xc608, rank/bank/row 0 6 0
12606000: DRAM: system.mem_ctrl.dram: Schedule RD/WR burst at tick 12606000
12624750: DRAM: system.mem_ctrl.dram: number of read entries for rank 0 is 0
12655000: DRAM: system.mem_ctrl.dram: Address: 0x77ef4 Rank 1 Bank 3 Row 3
12655000: DRAM: system.mem_ctrl.dram: Timing access to addr 0x77ef4, rank/bank/row 1 3 3
12655000: DRAM: system.mem_ctrl.dram: Schedule RD/WR burst at tick 12655000
12673750: DRAM: system.mem_ctrl.dram: number of read entries for rank 1 is 0
12704000: DRAM: system.mem_ctrl.dram: Address: 0xc60c Rank 0 Bank 6 Row 0
12704000: DRAM: system.mem_ctrl.dram: Timing access to addr 0xc60c, rank/bank/row 0 6 0
12704000: DRAM: system.mem_ctrl.dram: Schedule RD/WR burst at tick 12704000
12722750: DRAM: system.mem_ctrl.dram: number of read entries for rank 0 is 0
12753000: DRAM: system.mem_ctrl.dram: Address: 0xc610 Rank 0 Bank 6 Row 0
12753000: DRAM: system.mem_ctrl.dram: Timing access to addr 0xc610, rank/bank/row 0 6 0
12753000: DRAM: system.mem_ctrl.dram: Schedule RD/WR burst at tick 12753000
[...]
369440000: DRAM: system.mem_ctrl.dram: Timing access to addr 0x2ef4, rank/bank/row 0 1 0
369440000: DRAM: system.mem_ctrl.dram: Schedule RD/WR burst at tick 369440000
369458750: DRAM: system.mem_ctrl.dram: number of read entries for rank 0 is 0
369489000: DRAM: system.mem_ctrl.dram: Address: 0x2ef8 Rank 0 Bank 1 Row 0
369489000: DRAM: system.mem_ctrl.dram: Timing access to addr 0x2ef8, rank/bank/row 0 1 0
369489000: DRAM: system.mem_ctrl.dram: Schedule RD/WR burst at tick 369489000
369507750: DRAM: system.mem_ctrl.dram: number of read entries for rank 0 is 0
369538000: DRAM: system.mem_ctrl.dram: Address: 0x2efc Rank 0 Bank 1 Row 0
369538000: DRAM: system.mem_ctrl.dram: Timing access to addr 0x2efc, rank/bank/row 0 1 0
369538000: DRAM: system.mem_ctrl.dram: Schedule RD/WR burst at tick 369538000
369556750: DRAM: system.mem_ctrl.dram: number of read entries for rank 0 is 0
369587000: DRAM: system.mem_ctrl.dram: Address: 0x78fc0 Rank 1 Bank 4 Row 3
369587000: DRAM: system.mem_ctrl.dram: Timing access to addr 0x78fc0, rank/bank/row 1 4 3
369587000: DRAM: system.mem_ctrl.dram: Activate at tick 369587000
369587000: DRAM: system.mem_ctrl.dram: Activate bank 4, rank 1 at tick 369587000, now got 3 active
369587000: DRAM: system.mem_ctrl.dram: Schedule RD/WR burst at tick 369600750
369619500: DRAM: system.mem_ctrl.dram: number of read entries for rank 1 is 0
369650000: DRAM: system.mem_ctrl.dram: Address: 0x76014 Rank 1 Bank 3 Row 3
369650000: DRAM: system.mem_ctrl.dram: Timing access to addr 0x76014, rank/bank/row 1 3 3
369650000: DRAM: system.mem_ctrl.dram: Schedule RD/WR burst at tick 369650000
369668750: DRAM: system.mem_ctrl.dram: number of read entries for rank 1 is 0
369699000: DRAM: system.mem_ctrl.dram: Address: 0x78fc4 Rank 1 Bank 4 Row 3
369699000: DRAM: system.mem_ctrl.dram: Timing access to addr 0x78fc4, rank/bank/row 1 4 3
369699000: DRAM: system.mem_ctrl.dram: Schedule RD/WR burst at tick 369699000
369717750: DRAM: system.mem_ctrl.dram: number of read entries for rank 1 is 0
369748000: DRAM: system.mem_ctrl.dram: Address: 0x78fc8 Rank 1 Bank 4 Row 3
369748000: DRAM: system.mem_ctrl.dram: Timing access to addr 0x78fc8, rank/bank/row 1 4 3
369748000: DRAM: system.mem_ctrl.dram: Schedule RD/WR burst at tick 369748000
369766750: DRAM: system.mem_ctrl.dram: number of read entries for rank 1 is 0
369818000: DRAM: system.mem_ctrl.dram: Address: 0x78fcc Rank 1 Bank 4 Row 3
369818000: DRAM: system.mem_ctrl.dram: Timing access to addr 0x78fcc, rank/bank/row 1 4 3
369818000: DRAM: system.mem_ctrl.dram: Schedule RD/WR burst at tick 369818000
369836750: DRAM: system.mem_ctrl.dram: number of read entries for rank 1 is 0
369867000: DRAM: system.mem_ctrl.dram: Address: 0x78fd0 Rank 1 Bank 4 Row 3
369867000: DRAM: system.mem_ctrl.dram: Timing access to addr 0x78fd0, rank/bank/row 1 4 3
369867000: DRAM: system.mem_ctrl.dram: Schedule RD/WR burst at tick 369867000
369885750: DRAM: system.mem_ctrl.dram: number of read entries for rank 1 is 0
369916000: DRAM: system.mem_ctrl.dram: Address: 0x78fd4 Rank 1 Bank 4 Row 3
369916000: DRAM: system.mem_ctrl.dram: Timing access to addr 0x78fd4, rank/bank/row 1 4 3
369916000: DRAM: system.mem_ctrl.dram: Schedule RD/WR burst at tick 369916000
369934750: DRAM: system.mem_ctrl.dram: number of read entries for rank 1 is 0
369965000: DRAM: system.mem_ctrl.dram: Address: 0x78fd8 Rank 1 Bank 4 Row 3
369965000: DRAM: system.mem_ctrl.dram: Timing access to addr 0x78fd8, rank/bank/row 1 4 3
369965000: DRAM: system.mem_ctrl.dram: Schedule RD/WR burst at tick 369965000
369983750: DRAM: system.mem_ctrl.dram: number of read entries for rank 1 is 0
370014000: DRAM: system.mem_ctrl.dram: Address: 0x78fdc Rank 1 Bank 4 Row 3
370014000: DRAM: system.mem_ctrl.dram: Timing access to addr 0x78fdc, rank/bank/row 1 4 3
370014000: DRAM: system.mem_ctrl.dram: Schedule RD/WR burst at tick 370014000
370032750: DRAM: system.mem_ctrl.dram: number of read entries for rank 1 is 0
370063000: DRAM: system.mem_ctrl.dram: Address: 0x2f00 Rank 0 Bank 1 Row 0
370063000: DRAM: system.mem_ctrl.dram: Timing access to addr 0x2f00, rank/bank/row 0 1 0
370063000: DRAM: system.mem_ctrl.dram: Schedule RD/WR burst at tick 370063000
370081750: DRAM: system.mem_ctrl.dram: number of read entries for rank 0 is 0
370112000: DRAM: system.mem_ctrl.dram: Address: 0x2f04 Rank 0 Bank 1 Row 0
370112000: DRAM: system.mem_ctrl.dram: Timing access to addr 0x2f04, rank/bank/row 0 1 0
370112000: DRAM: system.mem_ctrl.dram: Schedule RD/WR burst at tick 370112000
370130750: DRAM: system.mem_ctrl.dram: number of read entries for rank 0 is 0
370161000: DRAM: system.mem_ctrl.dram: Address: 0x2f08 Rank 0 Bank 1 Row 0
370161000: DRAM: system.mem_ctrl.dram: Timing access to addr 0x2f08, rank/bank/row 0 1 0
370161000: DRAM: system.mem_ctrl.dram: Schedule RD/WR burst at tick 370161000
370179750: DRAM: system.mem_ctrl.dram: number of read entries for rank 0 is 0
370210000: DRAM: system.mem_ctrl.dram: Address: 0x2f0c Rank 0 Bank 1 Row 0
370210000: DRAM: system.mem_ctrl.dram: Timing access to addr 0x2f0c, rank/bank/row 0 1 0
370210000: DRAM: system.mem_ctrl.dram: Schedule RD/WR burst at tick 370210000
370228750: DRAM: system.mem_ctrl.dram: number of read entries for rank 0 is 0
370259000: DRAM: system.mem_ctrl.dram: Address: 0x2f10 Rank 0 Bank 1 Row 0
370259000: DRAM: system.mem_ctrl.dram: Timing access to addr 0x2f10, rank/bank/row 0 1 0
370259000: DRAM: system.mem_ctrl.dram: Schedule RD/WR burst at tick 370259000
370277750: DRAM: system.mem_ctrl.dram: number of read entries for rank 0 is 0
370308000: DRAM: system.mem_ctrl.dram: Address: 0x2f14 Rank 0 Bank 1 Row 0
370308000: DRAM: system.mem_ctrl.dram: Timing access to addr 0x2f14, rank/bank/row 0 1 0
370308000: DRAM: system.mem_ctrl.dram: Schedule RD/WR burst at tick 370308000
370326750: DRAM: system.mem_ctrl.dram: number of read entries for rank 0 is 0
370357000: DRAM: system.mem_ctrl.dram: Address: 0x2e9c Rank 0 Bank 1 Row 0
370357000: DRAM: system.mem_ctrl.dram: Timing access to addr 0x2e9c, rank/bank/row 0 1 0
370357000: DRAM: system.mem_ctrl.dram: Schedule RD/WR burst at tick 370357000
370375750: DRAM: system.mem_ctrl.dram: number of read entries for rank 0 is 0
370427000: DRAM: system.mem_ctrl.dram: Address: 0x2ea0 Rank 0 Bank 1 Row 0
370427000: DRAM: system.mem_ctrl.dram: Timing access to addr 0x2ea0, rank/bank/row 0 1 0
370427000: DRAM: system.mem_ctrl.dram: Schedule RD/WR burst at tick 370427000
370445750: DRAM: system.mem_ctrl.dram: number of read entries for rank 0 is 0
370476000: DRAM: system.mem_ctrl.dram: Address: 0x75154 Rank 1 Bank 2 Row 3
370476000: DRAM: system.mem_ctrl.dram: Timing access to addr 0x75154, rank/bank/row 1 2 3
370476000: DRAM: system.mem_ctrl.dram: Schedule RD/WR burst at tick 370476000
370494750: DRAM: system.mem_ctrl.dram: number of read entries for rank 1 is 0
370525000: DRAM: system.mem_ctrl.dram: Address: 0x2ea4 Rank 0 Bank 1 Row 0
370525000: DRAM: system.mem_ctrl.dram: Timing access to addr 0x2ea4, rank/bank/row 0 1 0
370525000: DRAM: system.mem_ctrl.dram: Schedule RD/WR burst at tick 370525000
370543750: DRAM: system.mem_ctrl.dram: number of read entries for rank 0 is 0
370574000: DRAM: system.mem_ctrl.dram: Address: 0x2ea8 Rank 0 Bank 1 Row 0
370574000: DRAM: system.mem_ctrl.dram: Timing access to addr 0x2ea8, rank/bank/row 0 1 0
370574000: DRAM: system.mem_ctrl.dram: Schedule RD/WR burst at tick 370574000
370592750: DRAM: system.mem_ctrl.dram: number of read entries for rank 0 is 0
370623000: DRAM: system.mem_ctrl.dram: Address: 0x2d94 Rank 0 Bank 1 Row 0
370623000: DRAM: system.mem_ctrl.dram: Timing access to addr 0x2d94, rank/bank/row 0 1 0
370623000: DRAM: system.mem_ctrl.dram: Schedule RD/WR burst at tick 370623000
370641750: DRAM: system.mem_ctrl.dram: number of read entries for rank 0 is 0
370672000: DRAM: system.mem_ctrl.dram: Address: 0x75080 Rank 1 Bank 2 Row 3
370672000: DRAM: system.mem_ctrl.dram: Timing access to addr 0x75080, rank/bank/row 1 2 3
370672000: DRAM: system.mem_ctrl.dram: Schedule RD/WR burst at tick 370672000
370690750: DRAM: system.mem_ctrl.dram: number of read entries for rank 1 is 0
370721000: DRAM: system.mem_ctrl.dram: Address: 0x2d98 Rank 0 Bank 1 Row 0
370721000: DRAM: system.mem_ctrl.dram: Timing access to addr 0x2d98, rank/bank/row 0 1 0
370721000: DRAM: system.mem_ctrl.dram: Schedule RD/WR burst at tick 370721000
370721000: DRAM: system.mem_ctrl.dram: Precharging bank 1, rank 0 at tick 370728500, now got 1 active
370721000: DRAM: system.mem_ctrl.dram: Auto-precharged bank: 1
370739750: DRAM: system.mem_ctrl.dram: number of read entries for rank 0 is 0
370770000: DRAM: system.mem_ctrl.dram: Address: 0x2d9c Rank 0 Bank 1 Row 0
370770000: DRAM: system.mem_ctrl.dram: Timing access to addr 0x2d9c, rank/bank/row 0 1 0
370770000: DRAM: system.mem_ctrl.dram: Activate at tick 370770000
370770000: DRAM: system.mem_ctrl.dram: Activate bank 1, rank 0 at tick 370770000, now got 2 active
370770000: DRAM: system.mem_ctrl.dram: Schedule RD/WR burst at tick 370783750
370802500: DRAM: system.mem_ctrl.dram: number of read entries for rank 0 is 0
370833000: DRAM: system.mem_ctrl.dram: Address: 0x2da0 Rank 0 Bank 1 Row 0
370833000: DRAM: system.mem_ctrl.dram: Timing access to addr 0x2da0, rank/bank/row 0 1 0
370833000: DRAM: system.mem_ctrl.dram: Schedule RD/WR burst at tick 370833000
370851750: DRAM: system.mem_ctrl.dram: number of read entries for rank 0 is 0
370882000: DRAM: system.mem_ctrl.dram: Address: 0x2f94 Rank 0 Bank 1 Row 0
370882000: DRAM: system.mem_ctrl.dram: Timing access to addr 0x2f94, rank/bank/row 0 1 0
370882000: DRAM: system.mem_ctrl.dram: Schedule RD/WR burst at tick 370882000
370900750: DRAM: system.mem_ctrl.dram: number of read entries for rank 0 is 0
370931000: DRAM: system.mem_ctrl.dram: Address: 0x2da4 Rank 0 Bank 1 Row 0
370931000: DRAM: system.mem_ctrl.dram: Timing access to addr 0x2da4, rank/bank/row 0 1 0
370931000: DRAM: system.mem_ctrl.dram: Schedule RD/WR burst at tick 370931000
370949750: DRAM: system.mem_ctrl.dram: number of read entries for rank 0 is 0
370980000: DRAM: system.mem_ctrl.dram: Address: 0x2da8 Rank 0 Bank 1 Row 0
370980000: DRAM: system.mem_ctrl.dram: Timing access to addr 0x2da8, rank/bank/row 0 1 0
370980000: DRAM: system.mem_ctrl.dram: Schedule RD/WR burst at tick 370980000
370998750: DRAM: system.mem_ctrl.dram: number of read entries for rank 0 is 0
371029000: DRAM: system.mem_ctrl.dram: Address: 0x2dac Rank 0 Bank 1 Row 0
371029000: DRAM: system.mem_ctrl.dram: Timing access to addr 0x2dac, rank/bank/row 0 1 0
371029000: DRAM: system.mem_ctrl.dram: Schedule RD/WR burst at tick 371029000
371047750: DRAM: system.mem_ctrl.dram: number of read entries for rank 0 is 0
371078000: DRAM: system.mem_ctrl.dram: Address: 0x2e9c Rank 0 Bank 1 Row 0
371078000: DRAM: system.mem_ctrl.dram: Timing access to addr 0x2e9c, rank/bank/row 0 1 0
371078000: DRAM: system.mem_ctrl.dram: Schedule RD/WR burst at tick 371078000
371096750: DRAM: system.mem_ctrl.dram: number of read entries for rank 0 is 0
371127000: DRAM: system.mem_ctrl.dram: Address: 0x750ec Rank 1 Bank 2 Row 3
371148000: DRAM: system.mem_ctrl.dram: Address: 0x2ea0 Rank 0 Bank 1 Row 0
371148000: DRAM: system.mem_ctrl.dram: Timing access to addr 0x2ea0, rank/bank/row 0 1 0
371148000: DRAM: system.mem_ctrl.dram: Schedule RD/WR burst at tick 371148000
371166750: DRAM: system.mem_ctrl.dram: number of read entries for rank 0 is 0
371197000: DRAM: system.mem_ctrl.dram: Address: 0x750b4 Rank 1 Bank 2 Row 3
371197000: DRAM: system.mem_ctrl.dram: Timing access to addr 0x750b4, rank/bank/row 1 2 3
371197000: DRAM: system.mem_ctrl.dram: Schedule RD/WR burst at tick 371197000
371215750: DRAM: system.mem_ctrl.dram: number of read entries for rank 1 is 0
371246000: DRAM: system.mem_ctrl.dram: Address: 0x2ea4 Rank 0 Bank 1 Row 0
371246000: DRAM: system.mem_ctrl.dram: Timing access to addr 0x2ea4, rank/bank/row 0 1 0
371246000: DRAM: system.mem_ctrl.dram: Schedule RD/WR burst at tick 371246000
371264750: DRAM: system.mem_ctrl.dram: number of read entries for rank 0 is 0
371295000: DRAM: system.mem_ctrl.dram: Address: 0x2ea8 Rank 0 Bank 1 Row 0
371295000: DRAM: system.mem_ctrl.dram: Timing access to addr 0x2ea8, rank/bank/row 0 1 0
371295000: DRAM: system.mem_ctrl.dram: Schedule RD/WR burst at tick 371295000
371313750: DRAM: system.mem_ctrl.dram: number of read entries for rank 0 is 0
371344000: DRAM: system.mem_ctrl.dram: Address: 0x2eac Rank 0 Bank 1 Row 0
371344000: DRAM: system.mem_ctrl.dram: Timing access to addr 0x2eac, rank/bank/row 0 1 0
371344000: DRAM: system.mem_ctrl.dram: Schedule RD/WR burst at tick 371344000
371362750: DRAM: system.mem_ctrl.dram: number of read entries for rank 0 is 0
371393000: DRAM: system.mem_ctrl.dram: Address: 0x2eb0 Rank 0 Bank 1 Row 0
371393000: DRAM: system.mem_ctrl.dram: Timing access to addr 0x2eb0, rank/bank/row 0 1 0
371393000: DRAM: system.mem_ctrl.dram: Schedule RD/WR burst at tick 371393000
371411750: DRAM: system.mem_ctrl.dram: number of read entries for rank 0 is 0
371442000: DRAM: system.mem_ctrl.dram: Address: 0x2eb4 Rank 0 Bank 1 Row 0
371442000: DRAM: system.mem_ctrl.dram: Timing access to addr 0x2eb4, rank/bank/row 0 1 0
371442000: DRAM: system.mem_ctrl.dram: Schedule RD/WR burst at tick 371442000
371460750: DRAM: system.mem_ctrl.dram: number of read entries for rank 0 is 0
371491000: DRAM: system.mem_ctrl.dram: Address: 0x77cfc Rank 1 Bank 3 Row 3
371491000: DRAM: system.mem_ctrl.dram: Timing access to addr 0x77cfc, rank/bank/row 1 3 3
371491000: DRAM: system.mem_ctrl.dram: Schedule RD/WR burst at tick 371491000
371492000: DRAM: system.mem_ctrl.dram: Address: 0x77d00 Rank 1 Bank 3 Row 3
371492000: DRAM: system.mem_ctrl.dram: Timing access to addr 0x77d00, rank/bank/row 1 3 3
371492000: DRAM: system.mem_ctrl.dram: Schedule RD/WR burst at tick 371496000
371509750: DRAM: system.mem_ctrl.dram: number of read entries for rank 1 is 1
371514750: DRAM: system.mem_ctrl.dram: number of read entries for rank 1 is 0
371545000: DRAM: system.mem_ctrl.dram: Address: 0x77d04 Rank 1 Bank 3 Row 3
371545000: DRAM: system.mem_ctrl.dram: Timing access to addr 0x77d04, rank/bank/row 1 3 3
371545000: DRAM: system.mem_ctrl.dram: Schedule RD/WR burst at tick 371545000
371563750: DRAM: system.mem_ctrl.dram: number of read entries for rank 1 is 0
371594000: DRAM: system.mem_ctrl.dram: Address: 0x77d0c Rank 1 Bank 3 Row 3
371594000: DRAM: system.mem_ctrl.dram: Timing access to addr 0x77d0c, rank/bank/row 1 3 3
371594000: DRAM: system.mem_ctrl.dram: Schedule RD/WR burst at tick 371594000
371612750: DRAM: system.mem_ctrl.dram: number of read entries for rank 1 is 0
371643000: DRAM: system.mem_ctrl.dram: Address: 0x77d14 Rank 1 Bank 3 Row 3
371643000: DRAM: system.mem_ctrl.dram: Timing access to addr 0x77d14, rank/bank/row 1 3 3
371643000: DRAM: system.mem_ctrl.dram: Schedule RD/WR burst at tick 371643000
371661750: DRAM: system.mem_ctrl.dram: number of read entries for rank 1 is 0
371692000: DRAM: system.mem_ctrl.dram: Address: 0x77d1c Rank 1 Bank 3 Row 3
371692000: DRAM: system.mem_ctrl.dram: Timing access to addr 0x77d1c, rank/bank/row 1 3 3
371692000: DRAM: system.mem_ctrl.dram: Schedule RD/WR burst at tick 371692000
371692000: DRAM: system.mem_ctrl.dram: Precharging bank 3, rank 1 at tick 371699500, now got 2 active
371692000: DRAM: system.mem_ctrl.dram: Auto-precharged bank: 11
371710750: DRAM: system.mem_ctrl.dram: number of read entries for rank 1 is 0
371741000: DRAM: system.mem_ctrl.dram: Address: 0xda4 Rank 0 Bank 0 Row 0
371741000: DRAM: system.mem_ctrl.dram: Timing access to addr 0xda4, rank/bank/row 0 0 0
371741000: DRAM: system.mem_ctrl.dram: Schedule RD/WR burst at tick 371741000
371759750: DRAM: system.mem_ctrl.dram: number of read entries for rank 0 is 0
371790000: DRAM: system.mem_ctrl.dram: Address: 0xda8 Rank 0 Bank 0 Row 0
371790000: DRAM: system.mem_ctrl.dram: Timing access to addr 0xda8, rank/bank/row 0 0 0
371790000: DRAM: system.mem_ctrl.dram: Schedule RD/WR burst at tick 371790000
371808750: DRAM: system.mem_ctrl.dram: number of read entries for rank 0 is 0
371839000: DRAM: system.mem_ctrl.dram: Address: 0xdac Rank 0 Bank 0 Row 0
371839000: DRAM: system.mem_ctrl.dram: Timing access to addr 0xdac, rank/bank/row 0 0 0
371839000: DRAM: system.mem_ctrl.dram: Schedule RD/WR burst at tick 371839000
371857750: DRAM: system.mem_ctrl.dram: number of read entries for rank 0 is 0
371888000: DRAM: system.mem_ctrl.dram: Address: 0xdb0 Rank 0 Bank 0 Row 0
371888000: DRAM: system.mem_ctrl.dram: Timing access to addr 0xdb0, rank/bank/row 0 0 0
371888000: DRAM: system.mem_ctrl.dram: Schedule RD/WR burst at tick 371888000
371906750: DRAM: system.mem_ctrl.dram: number of read entries for rank 0 is 0
371937000: DRAM: system.mem_ctrl.dram: Address: 0xaa24 Rank 0 Bank 5 Row 0
371937000: DRAM: system.mem_ctrl.dram: Timing access to addr 0xaa24, rank/bank/row 0 5 0
371937000: DRAM: system.mem_ctrl.dram: Activate at tick 371937000
371937000: DRAM: system.mem_ctrl.dram: Activate bank 5, rank 0 at tick 371937000, now got 3 active
371937000: DRAM: system.mem_ctrl.dram: Schedule RD/WR burst at tick 371950750
371969500: DRAM: system.mem_ctrl.dram: number of read entries for rank 0 is 0
372000000: DRAM: system.mem_ctrl.dram: Address: 0xaa9c Rank 0 Bank 5 Row 0
372000000: DRAM: system.mem_ctrl.dram: Timing access to addr 0xaa9c, rank/bank/row 0 5 0
372000000: DRAM: system.mem_ctrl.dram: Schedule RD/WR burst at tick 372000000
372018750: DRAM: system.mem_ctrl.dram: number of read entries for rank 0 is 0
372049000: DRAM: system.mem_ctrl.dram: Address: 0xaa28 Rank 0 Bank 5 Row 0
372049000: DRAM: system.mem_ctrl.dram: Timing access to addr 0xaa28, rank/bank/row 0 5 0
372049000: DRAM: system.mem_ctrl.dram: Schedule RD/WR burst at tick 372049000
372067750: DRAM: system.mem_ctrl.dram: number of read entries for rank 0 is 0
372098000: DRAM: system.mem_ctrl.dram: Address: 0xaaa0 Rank 0 Bank 5 Row 0
372098000: DRAM: system.mem_ctrl.dram: Timing access to addr 0xaaa0, rank/bank/row 0 5 0
372098000: DRAM: system.mem_ctrl.dram: Schedule RD/WR burst at tick 372098000
372116750: DRAM: system.mem_ctrl.dram: number of read entries for rank 0 is 0
372147000: DRAM: system.mem_ctrl.dram: Address: 0xaa2c Rank 0 Bank 5 Row 0
372147000: DRAM: system.mem_ctrl.dram: Timing access to addr 0xaa2c, rank/bank/row 0 5 0
372147000: DRAM: system.mem_ctrl.dram: Schedule RD/WR burst at tick 372147000
372165750: DRAM: system.mem_ctrl.dram: number of read entries for rank 0 is 0
372196000: DRAM: system.mem_ctrl.dram: Address: 0xaa30 Rank 0 Bank 5 Row 0
372196000: DRAM: system.mem_ctrl.dram: Timing access to addr 0xaa30, rank/bank/row 0 5 0
372196000: DRAM: system.mem_ctrl.dram: Schedule RD/WR burst at tick 372196000
372214750: DRAM: system.mem_ctrl.dram: number of read entries for rank 0 is 0
372245000: DRAM: system.mem_ctrl.dram: Address: 0xaa48 Rank 0 Bank 5 Row 0
372245000: DRAM: system.mem_ctrl.dram: Timing access to addr 0xaa48, rank/bank/row 0 5 0
372245000: DRAM: system.mem_ctrl.dram: Schedule RD/WR burst at tick 372245000
372263750: DRAM: system.mem_ctrl.dram: number of read entries for rank 0 is 0
372294000: DRAM: system.mem_ctrl.dram: Address: 0xaa4c Rank 0 Bank 5 Row 0
372294000: DRAM: system.mem_ctrl.dram: Timing access to addr 0xaa4c, rank/bank/row 0 5 0
372294000: DRAM: system.mem_ctrl.dram: Schedule RD/WR burst at tick 372294000
372312750: DRAM: system.mem_ctrl.dram: number of read entries for rank 0 is 0
372343000: DRAM: system.mem_ctrl.dram: Address: 0xaa50 Rank 0 Bank 5 Row 0
372343000: DRAM: system.mem_ctrl.dram: Timing access to addr 0xaa50, rank/bank/row 0 5 0
372343000: DRAM: system.mem_ctrl.dram: Schedule RD/WR burst at tick 372343000
372361750: DRAM: system.mem_ctrl.dram: number of read entries for rank 0 is 0
Exiting @ tick 372392000 because exiting with last active thread context
372392000: DRAM: 0: Computing stats due to a dump callback
372392000: DRAM: 1: Computing stats due to a dump callback
